global_

data_pd

_chi2_sum True
_chi2_diff False
_chi2_up False
_chi2_down False

_pd_instr_reflex_asymmetry_p1 0.0
_pd_instr_reflex_asymmetry_p2 0.0
_pd_instr_reflex_asymmetry_p3 0.0
_pd_instr_reflex_asymmetry_p4 0.0

_pd_instr_resolution_U 0.12205
_pd_instr_resolution_V -0.33588
_pd_instr_resolution_W 0.28380
_pd_instr_resolution_X 0.00000
_pd_instr_resolution_Y 0.14871

_range_2theta_min 10.0
_range_2theta_max 155.45

_setup_wavelength 1.9120
_setup_field 0.00
_setup_offset_2theta -0.138
_setup_offset_phi .
_setup_offset_gamma .
_setup_offset_nu .
_setup_ratio_lambda/2 .
_setup_radiation X-rays

loop_
_pd_meas_2theta
_pd_meas_intensity
_pd_meas_intensity_sigma
    10.0    220.0   14.8324
   10.05    214.0   14.6287
    10.1    219.0   14.7986
   10.15    224.0   14.9666
    10.2    198.0   14.0712
   10.25    229.0   15.1327
    10.3    224.0   14.9666
   10.35    216.0   14.6969
    10.4    202.0   14.2127
   10.45    229.0   15.1327
    10.5    202.0   14.2127
   10.55    215.0   14.6629
    10.6    215.0   14.6629
   10.65    196.0      14.0
    10.7    235.0   15.3297
   10.75    207.0   14.3875
    10.8    205.0   14.3178
   10.85    238.0   15.4272
    10.9    202.0   14.2127
   10.95    213.0   14.5945
    11.0    226.0   15.0333
   11.05    198.0   14.0712
    11.1    222.0   14.8997
   11.15    186.0   13.6382
    11.2    216.0   14.6969
   11.25    218.0   14.7648
    11.3    225.0      15.0
   11.35    200.0   14.1421
    11.4    196.0      14.0
   11.45    224.0   14.9666
    11.5    199.0   14.1067
   11.55    204.0   14.2829
    11.6    189.0   13.7477
   11.65    211.0   14.5258
    11.7    190.0    13.784
   11.75    184.0   13.5647
    11.8    204.0   14.2829
   11.85    204.0   14.2829
    11.9    219.0   14.7986
   11.95    207.0   14.3875
    12.0    227.0   15.0665
   12.05    211.0   10.2713
    12.1    193.0    9.8234
   12.15    206.0   10.1489
    12.2    208.0    10.198
   12.25    191.0    9.7724
    12.3    194.0    9.8489
   12.35    185.0    9.6177
    12.4    200.0      10.0
   12.45    203.0   10.0747
    12.5    197.0    9.9247
   12.55    203.0   10.0747
    12.6    200.0      10.0
   12.65    200.0      10.0
    12.7    205.0   10.1242
   12.75    208.0    10.198
    12.8    205.0   10.1242
   12.85    201.0    10.025
    12.9    221.0   10.5119
   12.95    218.0   10.4403
    13.0    218.0   10.4403
   13.05    216.0   10.3923
    13.1    202.0   10.0499
   13.15    206.0   10.1489
    13.2    197.0    9.9247
   13.25    210.0    10.247
    13.3    199.0     9.975
   13.35    219.0   10.4642
    13.4    192.0     9.798
   13.45    211.0   10.2713
    13.5    199.0     9.975
   13.55    196.0    9.8995
    13.6    195.0    9.8742
   13.65    203.0   10.0747
    13.7    202.0   10.0499
   13.75    200.0      10.0
    13.8    199.0     9.975
   13.85    191.0    9.7724
    13.9    204.0   10.0995
   13.95    191.0    9.7724
    14.0    200.0      10.0
   14.05    199.0     9.975
    14.1    197.0    9.9247
   14.15    202.0   10.0499
    14.2    210.0    10.247
   14.25    202.0   10.0499
    14.3    198.0    9.9499
   14.35    191.0    9.7724
    14.4    194.0    9.8489
   14.45    198.0    9.9499
    14.5    194.0    9.8489
   14.55    193.0    9.8234
    14.6    212.0   10.2956
   14.65    214.0   10.3441
    14.7    197.0    9.9247
   14.75    195.0    9.8742
    14.8    205.0   10.1242
   14.85    209.0   10.2225
    14.9    203.0   10.0747
   14.95    197.0    9.9247
    15.0    191.0    9.7724
   15.05    192.0     9.798
    15.1    215.0   10.3682
   15.15    194.0    9.8489
    15.2    189.0    9.7211
   15.25    188.0    9.6954
    15.3    202.0   10.0499
   15.35    201.0    10.025
    15.4    198.0    9.9499
   15.45    208.0    10.198
    15.5    197.0    9.9247
   15.55    187.0    9.6695
    15.6    187.0    9.6695
   15.65    190.0    9.7468
    15.7    197.0    9.9247
   15.75    200.0      10.0
    15.8    193.0    9.8234
   15.85    180.0    9.4868
    15.9    194.0    9.8489
   15.95    206.0   10.1489
    16.0    195.0    9.8742
   16.05    193.0    9.8234
    16.1    205.0   10.1242
   16.15    194.0    9.8489
    16.2    196.0    9.8995
   16.25    194.0    9.8489
    16.3    199.0     9.975
   16.35    207.0   10.1735
    16.4    188.0    9.6954
   16.45    203.0   10.0747
    16.5    188.0    9.6954
   16.55    180.0    9.4868
    16.6    198.0    9.9499
   16.65    200.0      10.0
    16.7    201.0    10.025
   16.75    210.0    10.247
    16.8    206.0   10.1489
   16.85    189.0    9.7211
    16.9    194.0    9.8489
   16.95    187.0    9.6695
    17.0    195.0    9.8742
   17.05    201.0    10.025
    17.1    197.0    9.9247
   17.15    206.0   10.1489
    17.2    208.0    10.198
   17.25    199.0     9.975
    17.3    192.0     9.798
   17.35    193.0    9.8234
    17.4    204.0   10.0995
   17.45    201.0    10.025
    17.5    200.0      10.0
   17.55    177.0    9.4074
    17.6    193.0    9.8234
   17.65    199.0     9.975
    17.7    201.0    10.025
   17.75    194.0    9.8489
    17.8    184.0    9.5917
   17.85    192.0     9.798
    17.9    199.0     9.975
   17.95    190.0    9.7468
    18.0    183.0    9.5656
   18.05    189.0    7.9373
    18.1    196.0    8.0829
   18.15    196.0    8.0829
    18.2    198.0     8.124
   18.25    210.0    8.3666
    18.3    212.0    8.4063
   18.35    219.0     8.544
    18.4    198.0     8.124
   18.45    195.0    8.0623
    18.5    198.0     8.124
   18.55    191.0    7.9791
    18.6    193.0    8.0208
   18.65    197.0    8.1035
    18.7    194.0    8.0416
   18.75    187.0    7.8951
    18.8    209.0    8.3467
   18.85    187.0    7.8951
    18.9    198.0     8.124
   18.95    206.0    8.2865
    19.0    197.0    8.1035
   19.05    191.0    7.9791
    19.1    200.0     8.165
   19.15    207.0    8.3066
    19.2    205.0    8.2664
   19.25    198.0     8.124
    19.3    196.0    8.0829
   19.35    209.0    8.3467
    19.4    211.0    8.3865
   19.45    203.0     8.226
    19.5    200.0     8.165
   19.55    192.0       8.0
    19.6    208.0    8.3267
   19.65    213.0    8.4261
    19.7    221.0    8.5829
   19.75    216.0    8.4853
    19.8    226.0    8.6795
   19.85    228.0    8.7178
    19.9    228.0    8.7178
   19.95    215.0    8.4656
    20.0    224.0     8.641
   20.05    226.0    8.6795
    20.1    213.0    8.4261
   20.15    239.0    8.9256
    20.2    250.0    9.1287
   20.25    247.0    9.0738
    20.3    240.0    8.9443
   20.35    231.0     8.775
    20.4    236.0    8.8694
   20.45    223.0    8.6217
    20.5    231.0     8.775
   20.55    226.0    8.6795
    20.6    214.0    8.4459
   20.65    208.0    8.3267
    20.7    214.0    8.4459
   20.75    196.0    8.0829
    20.8    204.0    8.2462
   20.85    199.0    8.1445
    20.9    186.0     7.874
   20.95    192.0       8.0
    21.0    199.0    8.1445
   21.05    200.0     8.165
    21.1    184.0    7.8316
   21.15    184.0    7.8316
    21.2    189.0    7.9373
   21.25    182.0    7.7889
    21.3    184.0    7.8316
   21.35    185.0    7.8528
    21.4    195.0    8.0623
   21.45    190.0    7.9582
    21.5    194.0    8.0416
   21.55    185.0    7.8528
    21.6    183.0    7.8102
   21.65    193.0    8.0208
    21.7    194.0    8.0416
   21.75    193.0    8.0208
    21.8    188.0    7.9162
   21.85    191.0    7.9791
    21.9    189.0    7.9373
   21.95    188.0    7.9162
    22.0    201.0    8.1854
   22.05    195.0    8.0623
    22.1    205.0    8.2664
   22.15    200.0     8.165
    22.2    200.0     8.165
   22.25    192.0       8.0
    22.3    197.0    8.1035
   22.35    204.0    8.2462
    22.4    207.0    8.3066
   22.45    192.0       8.0
    22.5    201.0    8.1854
   22.55    190.0    7.9582
    22.6    195.0    8.0623
   22.65    194.0    8.0416
    22.7    182.0    7.7889
   22.75    189.0    7.9373
    22.8    196.0    8.0829
   22.85    196.0    8.0829
    22.9    200.0     8.165
   22.95    190.0    7.9582
    23.0    183.0    7.8102
   23.05    199.0    8.1445
    23.1    187.0    7.8951
   23.15    196.0    8.0829
    23.2    191.0    7.9791
   23.25    191.0    7.9791
    23.3    195.0    8.0623
   23.35    194.0    8.0416
    23.4    192.0       8.0
   23.45    182.0    7.7889
    23.5    188.0    7.9162
   23.55    203.0     8.226
    23.6    187.0    7.8951
   23.65    192.0       8.0
    23.7    206.0    8.2865
   23.75    201.0    8.1854
    23.8    184.0    7.8316
   23.85    192.0       8.0
    23.9    205.0    8.2664
   23.95    196.0    8.0829
    24.0    193.0    8.0208
   24.05    194.0    6.9642
    24.1    195.0    6.9821
   24.15    194.0    6.9642
    24.2    201.0    7.0887
   24.25    193.0    6.9462
    24.3    176.0    6.6332
   24.35    187.0    6.8374
    24.4    188.0    6.8557
   24.45    196.0       7.0
    24.5    192.0    6.9282
   24.55    185.0    6.8007
    24.6    195.0    6.9821
   24.65    198.0    7.0356
    24.7    205.0    7.1589
   24.75    200.0    7.0711
    24.8    208.0    7.2111
   24.85    195.0    6.9821
    24.9    187.0    6.8374
   24.95    193.0    6.9462
    25.0    197.0    7.0178
   25.05    202.0    7.1063
    25.1    193.0    6.9462
   25.15    196.0       7.0
    25.2    202.0    7.1063
   25.25    201.0    7.0887
    25.3    197.0    7.0178
   25.35    204.0    7.1414
    25.4    208.0    7.2111
   25.45    206.0    7.1764
    25.5    212.0    7.2801
   25.55    207.0    7.1937
    25.6    207.0    7.1937
   25.65    212.0    7.2801
    25.7    216.0    7.3485
   25.75    218.0    7.3824
    25.8    221.0     7.433
   25.85    218.0    7.3824
    25.9    207.0    7.1937
   25.95    203.0    7.1239
    26.0    204.0    7.1414
   26.05    202.0    7.1063
    26.1    206.0    7.1764
   26.15    202.0    7.1063
    26.2    202.0    7.1063
   26.25    181.0    6.7268
    26.3    193.0    6.9462
   26.35    205.0    7.1589
    26.4    198.0    7.0356
   26.45    196.0       7.0
    26.5    197.0    7.0178
   26.55    195.0    6.9821
    26.6    201.0    7.0887
   26.65    205.0    7.1589
    26.7    195.0    6.9821
   26.75    196.0       7.0
    26.8    196.0       7.0
   26.85    205.0    7.1589
    26.9    198.0    7.0356
   26.95    200.0    7.0711
    27.0    199.0    7.0534
   27.05    180.0    6.7082
    27.1    187.0    6.8374
   27.15    193.0    6.9462
    27.2    197.0    7.0178
   27.25    197.0    7.0178
    27.3    196.0       7.0
   27.35    194.0    6.9642
    27.4    197.0    7.0178
   27.45    204.0    7.1414
    27.5    201.0    7.0887
   27.55    187.0    6.8374
    27.6    191.0    6.9101
   27.65    205.0    7.1589
    27.7    200.0    7.0711
   27.75    198.0    7.0356
    27.8    200.0    7.0711
   27.85    204.0    7.1414
    27.9    196.0       7.0
   27.95    195.0    6.9821
    28.0    194.0    6.9642
   28.05    200.0    7.0711
    28.1    198.0    7.0356
   28.15    201.0    7.0887
    28.2    208.0    7.2111
   28.25    205.0    7.1589
    28.3    211.0    7.2629
   28.35    211.0    7.2629
    28.4    220.0    7.4162
   28.45    220.0    7.4162
    28.5    212.0    7.2801
   28.55    208.0    7.2111
    28.6    214.0    7.3144
   28.65    226.0    7.5166
    28.7    235.0    7.6649
   28.75    233.0    7.6322
    28.8    237.0    7.6974
   28.85    242.0    7.7782
    28.9    242.0    7.7782
   28.95    245.0    7.8262
    29.0    239.0    7.7298
   29.05    226.0    7.5166
    29.1    232.0    7.6158
   29.15    238.0    7.7136
    29.2    226.0    7.5166
   29.25    218.0    7.3824
    29.3    218.0    7.3824
   29.35    214.0    7.3144
    29.4    205.0    7.1589
   29.45    200.0    7.0711
    29.5    193.0    6.9462
   29.55    195.0    6.9821
    29.6    196.0       7.0
   29.65    195.0    6.9821
    29.7    207.0    7.1937
   29.75    215.0    7.3314
    29.8    207.0    7.1937
   29.85    218.0    7.3824
    29.9    218.0    7.3824
   29.95    220.0    7.4162
    30.0    220.0    7.4162
   30.05    229.0    6.7676
    30.1    236.0    6.8702
   30.15    254.0    7.1274
    30.2    264.0    7.2664
   30.25    280.0    7.4833
    30.3    289.0    7.6026
   30.35    289.0    7.6026
    30.4    303.0    7.7846
   30.45    302.0    7.7717
    30.5    297.0    7.7071
   30.55    281.0    7.4967
    30.6    278.0    7.4565
   30.65    280.0    7.4833
    30.7    265.0    7.2801
   30.75    258.0    7.1833
    30.8    243.0    6.9714
   30.85    240.0    6.9282
    30.9    232.0    6.8118
   30.95    231.0    6.7971
    31.0    233.0    6.8264
   31.05    246.0    7.0143
    31.1    248.0    7.0427
   31.15    249.0    7.0569
    31.2    256.0    7.1554
   31.25    272.0    7.3756
    31.3    289.0    7.6026
   31.35    311.0    7.8867
    31.4    340.0    8.2462
   31.45    363.0    8.5206
    31.5    393.0    8.8657
   31.55    440.0    9.3808
    31.6    474.0    9.7365
   31.65    482.0    9.8183
    31.7    492.0    9.9197
   31.75    508.0   10.0797
    31.8    494.0    9.9398
   31.85    475.0    9.7468
    31.9    439.0    9.3702
   31.95    413.0    9.0885
    32.0    368.0     8.579
   32.05    331.0    8.1363
    32.1    299.0     7.733
   32.15    286.0    7.5631
    32.2    262.0    7.2388
   32.25    241.0    6.9426
    32.3    238.0    6.8993
   32.35    252.0    7.0993
    32.4    267.0    7.3075
   32.45    276.0    7.4297
    32.5    278.0    7.4565
   32.55    300.0     7.746
    32.6    325.0    8.0623
   32.65    336.0    8.1976
    32.7    359.0    8.4735
   32.75    405.0       9.0
    32.8    458.0    9.5708
   32.85    501.0     10.01
    32.9    564.0   10.6207
   32.95    640.0   11.3137
    33.0    719.0   11.9917
   33.05    783.0    12.514
    33.1    837.0   12.9383
   33.15    851.0   13.0461
    33.2    866.0   13.1605
   33.25    828.0   12.8686
    33.3    763.0   12.3531
   33.35    697.0   11.8068
    33.4    634.0   11.2606
   33.45    541.0   10.4019
    33.5    465.0    9.6437
   33.55    391.0    8.8431
    33.6    351.0    8.3785
   33.65    301.0    7.7589
    33.7    284.0    7.5366
   33.75    260.0    7.2111
    33.8    248.0    7.0427
   33.85    257.0    7.1694
    33.9    242.0     6.957
   33.95    246.0    7.0143
    34.0    263.0    7.2526
   34.05    271.0    7.3621
    34.1    281.0    7.4967
   34.15    302.0    7.7717
    34.2    309.0    7.8613
   34.25    335.0    8.1854
    34.3    342.0    8.2704
   34.35    345.0    8.3066
    34.4    356.0     8.438
   34.45    351.0    8.3785
    34.5    341.0    8.2583
   34.55    334.0    8.1731
    34.6    321.0    8.0125
   34.65    286.0    7.5631
    34.7    268.0    7.3212
   34.75    256.0    7.1554
    34.8    238.0    6.8993
   34.85    229.0    6.7676
    34.9    218.0     6.603
   34.95    223.0    6.6783
    35.0    216.0    6.5727
   35.05    203.0    6.3718
    35.1    203.0    6.3718
   35.15    194.0     6.229
    35.2    205.0    6.4031
   35.25    196.0     6.261
    35.3    193.0    6.2129
   35.35    206.0    6.4187
    35.4    201.0    6.3403
   35.45    201.0    6.3403
    35.5    201.0    6.3403
   35.55    200.0    6.3246
    35.6    194.0     6.229
   35.65    196.0     6.261
    35.7    203.0    6.3718
   35.75    195.0     6.245
    35.8    196.0     6.261
   35.85    211.0    6.4962
    35.9    216.0    6.5727
   35.95    207.0    6.4343
    36.0    215.0    6.5574
   36.05    221.0    6.6483
    36.1    237.0    6.2849
   36.15    248.0    6.4291
    36.2    261.0    6.5955
   36.25    279.0    6.8191
    36.3    319.0    7.2915
   36.35    337.0    7.4944
    36.4    364.0    7.7889
   36.45    423.0    8.3964
    36.5    489.0    9.0277
   36.55    557.0     9.635
    36.6    630.0    10.247
   36.65    729.0   11.0227
    36.7    822.0   11.7047
   36.75    943.0   12.5366
    36.8   1059.0   13.2853
   36.85   1196.0   14.1185
    36.9   1235.0   14.3469
   36.95   1220.0   14.2595
    37.0   1209.0   14.1951
   37.05   1128.0   13.7113
    37.1   1001.0   12.9164
   37.15    864.0      12.0
    37.2    729.0   11.0227
   37.25    601.0   10.0083
    37.3    496.0    9.0921
   37.35    418.0    8.3467
    37.4    355.0     7.692
   37.45    313.0    7.2226
    37.5    263.0    6.6207
   37.55    246.0    6.4031
    37.6    226.0    6.1373
   37.65    214.0    5.9722
    37.7    222.0    6.0828
   37.75    222.0    6.0828
    37.8    211.0    5.9301
   37.85    211.0    5.9301
    37.9    202.0    5.8023
   37.95    198.0    5.7446
    38.0    192.0    5.6569
   38.05    193.0    5.6716
    38.1    196.0    5.7155
   38.15    201.0    5.7879
    38.2    203.0    5.8166
   38.25    203.0    5.8166
    38.3    201.0    5.7879
   38.35    198.0    5.7446
    38.4    196.0    5.7155
   38.45    206.0    5.8595
    38.5    210.0    5.9161
   38.55    197.0      5.73
    38.6    204.0     5.831
   38.65    200.0    5.7735
    38.7    205.0    5.8452
   38.75    196.0    5.7155
    38.8    195.0    5.7009
   38.85    205.0    5.8452
    38.9    204.0     5.831
   38.95    200.0    5.7735
    39.0    203.0    5.8166
   39.05    208.0    5.8878
    39.1    207.0    5.8737
   39.15    202.0    5.8023
    39.2    203.0    5.8166
   39.25    198.0    5.7446
    39.3    204.0     5.831
   39.35    210.0    5.9161
    39.4    216.0       6.0
   39.45    210.0    5.9161
    39.5    229.0    6.1779
   39.55    239.0    6.3114
    39.6    247.0    6.4161
   39.65    278.0    6.8069
    39.7    302.0    7.0946
   39.75    324.0    7.3485
    39.8    371.0    7.8634
   39.85    420.0    8.3666
    39.9    465.0    8.8034
   39.95    538.0    9.4692
    40.0    630.0    10.247
   40.05    739.0    11.098
    40.1    851.0   11.9094
   40.15    976.0   12.7541
    40.2   1076.0   13.3915
   40.25   1161.0   13.9104
    40.3   1222.0   14.2712
   40.35   1227.0   14.3003
    40.4   1187.0   14.0653
   40.45   1096.0   13.5154
    40.5    964.0   12.6754
   40.55    833.0   11.7828
    40.6    708.0   10.8628
   40.65    587.0    9.8911
    40.7    512.0    9.2376
   40.75    436.0    8.5245
    40.8    391.0    8.0726
   40.85    384.0       8.0
    40.9    370.0    7.8528
   40.95    391.0    8.0726
    41.0    419.0    8.3566
   41.05    448.0     8.641
    41.1    490.0     9.037
   41.15    567.0    9.7211
    41.2    626.0   10.2144
   41.25    687.0   10.7005
    41.3    735.0    11.068
   41.35    780.0   11.4018
    41.4    782.0   11.4164
   41.45    745.0    11.143
    41.5    721.0   10.9621
   41.55    662.0    10.504
    41.6    595.0    9.9582
   41.65    527.0    9.3719
    41.7    446.0    8.6217
   41.75    393.0    8.0932
    41.8    335.0    7.4722
   41.85    301.0    7.0828
    41.9    276.0    6.7823
   41.95    251.0    5.9881
    42.0    242.0    5.8797
   42.05    229.0    5.7196
    42.1    209.0    5.4642
   42.15    215.0     5.542
    42.2    218.0    5.5806
   42.25    214.0    5.5291
    42.3    209.0    5.4642
   42.35    208.0    5.4511
    42.4    212.0    5.5032
   42.45    210.0    5.4772
    42.5    209.0    5.4642
   42.55    210.0    5.4772
    42.6    205.0    5.4116
   42.65    209.0    5.4642
    42.7    211.0    5.4903
   42.75    211.0    5.4903
    42.8    216.0    5.5549
   42.85    205.0    5.4116
    42.9    204.0    5.3984
   42.95    202.0    5.3719
    43.0    201.0    5.3586
   43.05    200.0    5.3452
    43.1    207.0     5.438
   43.15    205.0    5.4116
    43.2    202.0    5.3719
   43.25    209.0    5.4642
    43.3    202.0    5.3719
   43.35    203.0    5.3852
    43.4    206.0    5.4248
   43.45    206.0    5.4248
    43.5    200.0    5.3452
   43.55    194.0    5.2644
    43.6    199.0    5.3318
   43.65    204.0    5.3984
    43.7    205.0    5.4116
   43.75    210.0    5.4772
    43.8    207.0     5.438
   43.85    205.0    5.4116
    43.9    210.0    5.4772
   43.95    204.0    5.3984
    44.0    203.0    5.3852
   44.05    202.0    5.3719
    44.1    205.0    5.4116
   44.15    201.0    5.3586
    44.2    201.0    5.3586
   44.25    207.0     5.438
    44.3    197.0     5.305
   44.35    198.0    5.3184
    44.4    203.0    5.3852
   44.45    209.0    5.4642
    44.5    209.0    5.4642
   44.55    208.0    5.4511
    44.6    204.0    5.3984
   44.65    209.0    5.4642
    44.7    199.0    5.3318
   44.75    204.0    5.3984
    44.8    206.0    5.4248
   44.85    201.0    5.3586
    44.9    205.0    5.4116
   44.95    202.0    5.3719
    45.0    204.0    5.3984
   45.05    198.0    5.3184
    45.1    198.0    5.3184
   45.15    213.0    5.5162
    45.2    210.0    5.4772
   45.25    212.0    5.5032
    45.3    214.0    5.5291
   45.35    215.0     5.542
    45.4    217.0    5.5678
   45.45    210.0    5.4772
    45.5    214.0    5.5291
   45.55    215.0     5.542
    45.6    215.0     5.542
   45.65    215.0     5.542
    45.7    217.0    5.5678
   45.75    222.0    5.6315
    45.8    231.0    5.7446
   45.85    247.0    5.9402
    45.9    252.0       6.0
   45.95    273.0     6.245
    46.0    304.0      6.59
   46.05    332.0    6.8868
    46.1    366.0    7.2309
   46.15    408.0    7.6345
    46.2    463.0    8.1328
   46.25    532.0    8.7178
    46.3    619.0    9.4036
   46.35    734.0     10.24
    46.4    828.0   10.8759
   46.45    944.0   11.6128
    46.5   1003.0   11.9702
   46.55   1055.0   12.2766
    46.6   1070.0   12.3635
   46.65   1018.0   12.0594
    46.7    944.0   11.6128
   46.75    833.0   10.9087
    46.8    725.0    10.177
   46.85    633.0    9.5094
    46.9    507.0    8.5105
   46.95    445.0    7.9732
    47.0    379.0    7.3582
   47.05    347.0    7.0407
    47.1    316.0    6.7188
   47.15    282.0    6.3471
    47.2    267.0     6.176
   47.25    269.0    6.1991
    47.3    281.0    6.3358
   47.35    288.0    6.4143
    47.4    300.0    6.5465
   47.45    327.0    6.8348
    47.5    346.0    7.0305
   47.55    380.0    7.3679
    47.6    400.0    7.5593
   47.65    430.0    7.8376
    47.7    453.0    8.0445
   47.75    459.0    8.0976
    47.8    451.0    8.0267
   47.85    427.0    7.8102
    47.9    402.0    7.5782
   47.95    375.0    7.3193
    48.0    344.0    7.0102
   48.05    309.0     6.644
    48.1    277.0    6.2906
   48.15    265.0    5.7554
    48.2    246.0    5.5453
   48.25    246.0    5.5453
    48.3    230.0    5.3619
   48.35    223.0    5.2797
    48.4    227.0    5.3268
   48.45    225.0    5.3033
    48.5    217.0    5.2082
   48.55    217.0    5.2082
    48.6    223.0    5.2797
   48.65    223.0    5.2797
    48.7    220.0     5.244
   48.75    223.0    5.2797
    48.8    226.0    5.3151
   48.85    248.0    5.5678
    48.9    258.0    5.6789
   48.95    274.0    5.8523
    49.0    297.0     6.093
   49.05    324.0     6.364
    49.1    355.0    6.6615
   49.15    393.0    7.0089
    49.2    458.0    7.5664
   49.25    528.0     8.124
    49.3    589.0    8.5805
   49.35    688.0    9.2736
    49.4    781.0    9.8805
   49.45    840.0    10.247
    49.5    876.0   10.4642
   49.55    874.0   10.4523
    49.6    832.0    10.198
   49.65    765.0    9.7788
    49.7    682.0    9.2331
   49.75    613.0    8.7536
    49.8    524.0    8.0932
   49.85    455.0    7.5416
    49.9    408.0    7.1414
   49.95    384.0    6.9282
    50.0    366.0    6.7639
   50.05    375.0    6.8465
    50.1    392.0       7.0
   50.15    426.0    7.2973
    50.2    470.0    7.6649
   50.25    519.0    8.0545
    50.3    588.0    8.5732
   50.35    639.0    8.9373
    50.4    681.0    9.2263
   50.45    704.0    9.3808
    50.5    693.0    9.3073
   50.55    650.0    9.0139
    50.6    600.0    8.6603
   50.65    540.0    8.2158
    50.7    478.0    7.7298
   50.75    412.0    7.1764
    50.8    376.0    6.8557
   50.85    345.0     6.567
    50.9    330.0    6.4226
   50.95    337.0    6.4904
    51.0    350.0    6.6144
   51.05    383.0    6.9192
    51.1    426.0    7.2973
   51.15    493.0    7.8502
    51.2    571.0    8.4484
   51.25    676.0    9.1924
    51.3    803.0   10.0187
   51.35    920.0   10.7238
    51.4   1071.0   11.5704
   51.45   1183.0   12.1604
    51.5   1247.0    12.485
   51.55   1255.0    12.525
    51.6   1251.0    12.505
   51.65   1183.0   12.1604
    51.7   1068.0   11.5542
   51.75    945.0   10.8685
    51.8    861.0   10.3742
   51.85    811.0   10.0685
    51.9    813.0   10.0809
   51.95    872.0   10.4403
    52.0    969.0   11.0057
   52.05   1120.0   11.8322
    52.1   1309.0   12.7916
   52.15   1527.0   13.8158
    52.2   1706.0   14.6031
   52.25   1856.0   15.2315
    52.3   1888.0   15.3623
   52.35   1837.0   15.1534
    52.4   1713.0    14.633
   52.45   1500.0   13.6931
    52.5   1289.0   12.6935
   52.55   1103.0    11.742
    52.6    904.0   10.6301
   52.65    749.0     9.676
    52.7    627.0     8.853
   52.75    568.0    8.4261
    52.8    551.0    8.2991
   52.85    560.0    8.3666
    52.9    586.0    8.5586
   52.95    634.0    8.9022
    53.0    691.0    9.2938
   53.05    751.0    9.6889
    53.1    799.0    9.9937
   53.15    792.0    9.9499
    53.2    820.0   10.1242
   53.25    774.0    9.8362
    53.3    736.0    9.5917
   53.35    680.0    9.2195
    53.4    627.0     8.853
   53.45    562.0    8.3815
    53.5    514.0    8.0156
   53.55    459.0    7.5746
    53.6    424.0    7.2801
   53.65    362.0    6.7268
    53.7    333.0    6.4517
   53.75    318.0    6.3048
    53.8    300.0    6.1237
   53.85    287.0    5.9896
    53.9    265.0    5.7554
   53.95    266.0    5.7663
    54.0    262.0    5.7228
   54.05    263.0    5.4058
    54.1    255.0    5.3229
   54.15    270.0    5.4772
    54.2    278.0    5.5578
   54.25    289.0    5.6667
    54.3    317.0    5.9348
   54.35    343.0    6.1734
    54.4    400.0    6.6667
   54.45    468.0    7.2111
    54.5    561.0    7.8951
   54.55    695.0    8.7876
    54.6    873.0    9.8489
   54.65   1100.0   11.0554
    54.7   1372.0   12.3468
   54.75   1660.0    13.581
    54.8   1954.0   14.7347
   54.85   2224.0   15.7198
    54.9   2400.0   16.3299
   54.95   2459.0   16.5294
    55.0   2435.0   16.4486
   55.05   2245.0   15.7938
    55.1   1986.0   14.8549
   55.15   1671.0    13.626
    55.2   1358.0   12.2837
   55.25   1086.0   10.9848
    55.3    868.0    9.8206
   55.35    682.0     8.705
    55.4    578.0    8.0139
   55.45    521.0    7.6085
    55.5    512.0    7.5425
   55.55    537.0    7.7244
    55.6    600.0     8.165
   55.65    704.0    8.8443
    55.7    855.0    9.7468
   55.75   1032.0   10.7083
    55.8   1232.0      11.7
   55.85   1466.0   12.7628
    55.9   1693.0   13.7154
   55.95   1866.0   14.3991
    56.0   1966.0   14.7799
   56.05   2024.0   14.9963
    56.1   2016.0   14.9666
   56.15   1846.0   14.3217
    56.2   1667.0   13.6096
   56.25   1429.0   12.6007
    56.3   1179.0   11.4455
   56.35    950.0    10.274
    56.4    763.0    9.2075
   56.45    599.0    8.1582
    56.5    484.0    7.3333
   56.55    404.0    6.6999
    56.6    351.0     6.245
   56.65    304.0    5.8119
    56.7    284.0    5.6174
   56.75    273.0    5.5076
    56.8    259.0    5.3645
   56.85    251.0     5.281
    56.9    251.0     5.281
   56.95    252.0    5.2915
    57.0    245.0    5.2175
   57.05    259.0    5.3645
    57.1    250.0    5.2705
   57.15    253.0     5.302
    57.2    256.0    5.3333
   57.25    264.0     5.416
    57.3    285.0    5.6273
   57.35    301.0    5.7831
    57.4    346.0    6.2004
   57.45    390.0    6.5828
    57.5    458.0    7.1336
   57.55    528.0    7.6594
    57.6    624.0    8.3267
   57.65    733.0    9.0247
    57.7    829.0    9.5975
   57.75    916.0   10.0885
    57.8    988.0   10.4775
   57.85    994.0   10.5093
    57.9    929.0   10.1598
   57.95    843.0    9.6782
    58.0    742.0    9.0799
   58.05    638.0    8.4196
    58.1    527.0    7.6522
   58.15    434.0    6.9442
    58.2    377.0    6.4722
   58.25    320.0    5.9628
    58.3    282.0    5.5976
   58.35    273.0    5.5076
    58.4    256.0    5.3333
   58.45    243.0    5.1962
    58.5    240.0     5.164
   58.55    240.0     5.164
    58.6    230.0    5.0553
   58.65    220.0    4.9441
    58.7    230.0    5.0553
   58.75    227.0    5.0222
    58.8    224.0    4.9889
   58.85    219.0    4.9329
    58.9    227.0    5.0222
   58.95    227.0    5.0222
    59.0    224.0    4.9889
   59.05    222.0    4.9666
    59.1    223.0    4.9777
   59.15    217.0    4.9103
    59.2    213.0    4.8648
   59.25    216.0     4.899
    59.3    219.0    4.9329
   59.35    219.0    4.9329
    59.4    218.0    4.9216
   59.45    220.0    4.9441
    59.5    220.0    4.9441
   59.55    220.0    4.9441
    59.6    223.0    4.9777
   59.65    233.0    5.0881
    59.7    237.0    5.1316
   59.75    249.0    5.2599
    59.8    258.0    5.3541
   59.85    261.0    5.3852
    59.9    283.0    5.6075
   59.95    304.0    5.8119
    60.0    324.0    5.6921
   60.05    347.0    5.8907
    60.1    353.0    5.9414
   60.15    359.0    5.9917
    60.2    363.0    6.0249
   60.25    352.0     5.933
    60.3    341.0    5.8395
   60.35    330.0    5.7446
    60.4    308.0    5.5498
   60.45    291.0    5.3944
    60.5    271.0    5.2058
   60.55    254.0    5.0398
    60.6    245.0    4.9497
   60.65    245.0    4.9497
    60.7    239.0    4.8888
   60.75    228.0    4.7749
    60.8    217.0    4.6583
   60.85    217.0    4.6583
    60.9    218.0     4.669
   60.95    223.0    4.7223
    61.0    207.0    4.5497
   61.05    218.0     4.669
    61.1    222.0    4.7117
   61.15    215.0    4.6368
    61.2    210.0    4.5826
   61.25    216.0    4.6476
    61.3    213.0    4.6152
   61.35    212.0    4.6043
    61.4    215.0    4.6368
   61.45    212.0    4.6043
    61.5    214.0     4.626
   61.55    211.0    4.5935
    61.6    214.0     4.626
   61.65    217.0    4.6583
    61.7    205.0    4.5277
   61.75    207.0    4.5497
    61.8    213.0    4.6152
   61.85    208.0    4.5607
    61.9    211.0    4.5935
   61.95    205.0    4.5277
    62.0    214.0     4.626
   62.05    213.0    4.6152
    62.1    212.0    4.6043
   62.15    212.0    4.6043
    62.2    213.0    4.6152
   62.25    207.0    4.5497
    62.3    203.0    4.5056
   62.35    211.0    4.5935
    62.4    211.0    4.5935
   62.45    214.0     4.626
    62.5    214.0     4.626
   62.55    207.0    4.5497
    62.6    203.0    4.5056
   62.65    212.0    4.6043
    62.7    212.0    4.6043
   62.75    214.0     4.626
    62.8    213.0    4.6152
   62.85    202.0    4.4944
    62.9    210.0    4.5826
   62.95    211.0    4.5935
    63.0    211.0    4.5935
   63.05    214.0     4.626
    63.1    221.0    4.7011
   63.15    217.0    4.6583
    63.2    212.0    4.6043
   63.25    214.0     4.626
    63.3    219.0    4.6797
   63.35    223.0    4.7223
    63.4    225.0    4.7434
   63.45    227.0    4.7645
    63.5    235.0    4.8477
   63.55    240.0     4.899
    63.6    243.0    4.9295
   63.65    252.0      5.02
    63.7    249.0      4.99
   63.75    249.0      4.99
    63.8    255.0    5.0498
   63.85    262.0    5.1186
    63.9    282.0    5.3104
   63.95    308.0    5.5498
    64.0    351.0    5.9245
   64.05    398.0    6.3087
    64.1    470.0    6.8557
   64.15    525.0    7.2457
    64.2    596.0    7.7201
   64.25    646.0    8.0374
    64.3    681.0    8.2523
   64.35    665.0    8.1548
    64.4    615.0    7.8422
   64.45    563.0    7.5033
    64.5    484.0     6.957
   64.55    421.0    6.4885
    64.6    364.0    6.0332
   64.65    317.0    5.6303
    64.7    289.0    5.3759
   64.75    261.0    5.1088
    64.8    245.0    4.9497
   64.85    233.0     4.827
    64.9    228.0    4.7749
   64.95    219.0    4.6797
    65.0    219.0    4.6797
   65.05    217.0    4.6583
    65.1    216.0    4.6476
   65.15    221.0    4.7011
    65.2    215.0    4.6368
   65.25    215.0    4.6368
    65.3    210.0    4.5826
   65.35    212.0    4.6043
    65.4    212.0    4.6043
   65.45    204.0    4.5166
    65.5    209.0    4.5717
   65.55    206.0    4.5387
    65.6    216.0    4.6476
   65.65    207.0    4.5497
    65.7    214.0     4.626
   65.75    207.0    4.5497
    65.8    209.0    4.5717
   65.85    218.0     4.669
    65.9    215.0    4.6368
   65.95    222.0    4.7117
    66.0    226.0    4.7539
   66.05    230.0    4.7958
    66.1    239.0    4.8888
   66.15    249.0      4.99
    66.2    263.0    5.1284
   66.25    275.0     5.244
    66.3    292.0    5.4037
   66.35    317.0    5.6303
    66.4    323.0    5.6833
   66.45    341.0    5.8395
    66.5    350.0    5.9161
   66.55    330.0    5.7446
    66.6    320.0    5.6569
   66.65    307.0    5.5408
    66.7    284.0    5.3292
   66.75    275.0     5.244
    66.8    265.0    5.1478
   66.85    269.0    5.1865
    66.9    275.0     5.244
   66.95    292.0    5.4037
    67.0    311.0    5.5767
   67.05    338.0    5.8138
    67.1    387.0    6.2209
   67.15    413.0    6.4265
    67.2    463.0    6.8044
   67.25    510.0    7.1414
    67.3    534.0    7.3075
   67.35    559.0    7.4766
    67.4    539.0    7.3417
   67.45    533.0    7.3007
    67.5    500.0    7.0711
   67.55    471.0    6.8629
    67.6    455.0    6.7454
   67.65    410.0    6.4031
    67.7    373.0    6.1074
   67.75    342.0    5.8481
    67.8    307.0    5.5408
   67.85    288.0    5.3666
    67.9    286.0    5.3479
   67.95    281.0    5.3009
    68.0    292.0    5.4037
   68.05    291.0    5.3944
    68.1    312.0    5.5857
   68.15    326.0    5.7096
    68.2    336.0    5.7966
   68.25    346.0    5.8822
    68.3    341.0    5.8395
   68.35    327.0    5.7184
    68.4    305.0    5.5227
   68.45    277.0    5.2631
    68.5    267.0    5.1672
   68.55    249.0      4.99
    68.6    229.0    4.7854
   68.65    221.0    4.7011
    68.7    220.0    4.6904
   68.75    217.0    4.6583
    68.8    211.0    4.5935
   68.85    204.0    4.5166
    68.9    203.0    4.5056
   68.95    220.0    4.6904
    69.0    217.0    4.6583
   69.05    217.0    4.6583
    69.1    214.0     4.626
   69.15    205.0    4.5277
    69.2    205.0    4.5277
   69.25    211.0    4.5935
    69.3    206.0    4.5387
   69.35    208.0    4.5607
    69.4    201.0    4.4833
   69.45    208.0    4.5607
    69.5    214.0     4.626
   69.55    212.0    4.6043
    69.6    206.0    4.5387
   69.65    216.0    4.6476
    69.7    219.0    4.6797
   69.75    215.0    4.6368
    69.8    217.0    4.6583
   69.85    211.0    4.5935
    69.9    214.0     4.626
   69.95    215.0    4.6368
    70.0    224.0    4.7329
   70.05    217.0    4.6583
    70.1    215.0    4.6368
   70.15    218.0     4.669
    70.2    218.0     4.669
   70.25    228.0    4.7749
    70.3    227.0    4.7645
   70.35    228.0    4.7749
    70.4    225.0    4.7434
   70.45    219.0    4.6797
    70.5    216.0    4.6476
   70.55    219.0    4.6797
    70.6    218.0     4.669
   70.65    214.0     4.626
    70.7    212.0    4.6043
   70.75    221.0    4.7011
    70.8    214.0     4.626
   70.85    208.0    4.5607
    70.9    204.0    4.5166
   70.95    209.0    4.5717
    71.0    209.0    4.5717
   71.05    208.0    4.5607
    71.1    212.0    4.6043
   71.15    213.0    4.6152
    71.2    218.0     4.669
   71.25    212.0    4.6043
    71.3    205.0    4.5277
   71.35    207.0    4.5497
    71.4    204.0    4.5166
   71.45    206.0    4.5387
    71.5    211.0    4.5935
   71.55    216.0    4.6476
    71.6    214.0     4.626
   71.65    210.0    4.5826
    71.7    219.0    4.6797
   71.75    222.0    4.7117
    71.8    224.0    4.7329
   71.85    231.0    4.8062
    71.9    227.0    4.7645
   71.95    237.0    4.8683
    72.0    235.0    4.8477
   72.05    238.0    4.8785
    72.1    245.0    4.9497
   72.15    242.0    4.9193
    72.2    248.0      4.98
   72.25    246.0    4.9598
    72.3    243.0    4.9295
   72.35    253.0    5.0299
    72.4    259.0    5.0892
   72.45    278.0    5.2726
    72.5    281.0    5.3009
   72.55    297.0    5.4498
    72.6    310.0    5.5678
   72.65    324.0    5.6921
    72.7    322.0    5.6745
   72.75    311.0    5.5767
    72.8    295.0    5.4314
   72.85    281.0    5.3009
    72.9    259.0    5.0892
   72.95    250.0       5.0
    73.0    239.0    4.8888
   73.05    233.0     4.827
    73.1    227.0    4.7645
   73.15    226.0    4.7539
    73.2    223.0    4.7223
   73.25    211.0    4.5935
    73.3    209.0    4.5717
   73.35    217.0    4.6583
    73.4    214.0     4.626
   73.45    213.0    4.6152
    73.5    217.0    4.6583
   73.55    220.0    4.6904
    73.6    210.0    4.5826
   73.65    209.0    4.5717
    73.7    215.0    4.6368
   73.75    218.0     4.669
    73.8    215.0    4.6368
   73.85    217.0    4.6583
    73.9    221.0    4.7011
   73.95    217.0    4.6583
    74.0    219.0    4.6797
   74.05    220.0    4.6904
    74.1    228.0    4.7749
   74.15    229.0    4.7854
    74.2    230.0    4.7958
   74.25    234.0    4.8374
    74.3    251.0      5.01
   74.35    261.0    5.1088
    74.4    288.0    5.3666
   74.45    313.0    5.5946
    74.5    362.0    6.0166
   74.55    424.0    6.5115
    74.6    524.0    7.2388
   74.65    646.0    8.0374
    74.7    781.0    8.8374
   74.75    920.0    9.5917
    74.8   1024.0   10.1193
   74.85   1120.0    10.583
    74.9   1187.0    10.895
   74.95   1187.0    10.895
    75.0   1166.0   10.7981
   75.05   1114.0   10.5546
    75.1   1044.0   10.2176
   75.15    991.0    9.9549
    75.2    927.0    9.6281
   75.25    823.0    9.0719
    75.3    717.0    8.4676
   75.35    619.0    7.8677
    75.4    520.0    7.2111
   75.45    421.0    6.4885
    75.5    353.0    5.9414
   75.55    308.0    5.5498
    75.6    273.0    5.2249
   75.65    256.0    5.0596
    75.7    245.0    4.9497
   75.75    234.0    4.8374
    75.8    230.0    4.7958
   75.85    224.0    4.7329
    75.9    232.0    4.8166
   75.95    226.0    4.7539
    76.0    222.0    4.7117
   76.05    222.0    4.7117
    76.1    227.0    4.7645
   76.15    225.0    4.7434
    76.2    226.0    4.7539
   76.25    227.0    4.7645
    76.3    229.0    4.7854
   76.35    235.0    4.8477
    76.4    233.0     4.827
   76.45    243.0    4.9295
    76.5    238.0    4.8785
   76.55    237.0    4.8683
    76.6    236.0     4.858
   76.65    232.0    4.8166
    76.7    231.0    4.8062
   76.75    227.0    4.7645
    76.8    225.0    4.7434
   76.85    220.0    4.6904
    76.9    218.0     4.669
   76.95    215.0    4.6368
    77.0    219.0    4.6797
   77.05    224.0    4.7329
    77.1    225.0    4.7434
   77.15    222.0    4.7117
    77.2    231.0    4.8062
   77.25    243.0    4.9295
    77.3    250.0       5.0
   77.35    269.0    5.1865
    77.4    286.0    5.3479
   77.45    310.0    5.5678
    77.5    325.0    5.7009
   77.55    332.0    5.7619
    77.6    337.0    5.8052
   77.65    329.0    5.7359
    77.7    303.0    5.5045
   77.75    278.0    5.2726
    77.8    268.0    5.1769
   77.85    252.0      5.02
    77.9    236.0     4.858
   77.95    228.0    4.7749
    78.0    219.0    4.6797
   78.05    225.0    4.7434
    78.1    222.0    4.7117
   78.15    214.0     4.626
    78.2    228.0    4.7749
   78.25    221.0    4.7011
    78.3    217.0    4.6583
   78.35    221.0    4.7011
    78.4    222.0    4.7117
   78.45    226.0    4.7539
    78.5    237.0    4.8683
   78.55    246.0    4.9598
    78.6    255.0    5.0498
   78.65    269.0    5.1865
    78.7    284.0    5.3292
   78.75    302.0    5.4955
    78.8    313.0    5.5946
   78.85    327.0    5.7184
    78.9    321.0    5.6657
   78.95    333.0    5.7706
    79.0    331.0    5.7533
   79.05    332.0    5.7619
    79.1    358.0    5.9833
   79.15    402.0    6.3403
    79.2    460.0    6.7823
   79.25    557.0    7.4632
    79.3    660.0     8.124
   79.35    769.0    8.7693
    79.4    859.0    9.2682
   79.45    934.0    9.6644
    79.5    955.0    9.7724
   79.55    921.0    9.5969
    79.6    824.0    9.0774
   79.65    694.0    8.3307
    79.7    578.0    7.6026
   79.75    474.0    6.8848
    79.8    402.0    6.3403
   79.85    344.0    5.8652
    79.9    306.0    5.5317
   79.95    300.0    5.4772
    80.0    292.0    5.4037
   80.05    292.0    5.4037
    80.1    302.0    5.4955
   80.15    304.0    5.5136
    80.2    306.0    5.5317
   80.25    305.0    5.5227
    80.3    303.0    5.5045
   80.35    299.0    5.4681
    80.4    278.0    5.2726
   80.45    259.0    5.0892
    80.5    257.0    5.0695
   80.55    245.0    4.9497
    80.6    237.0    4.8683
   80.65    240.0     4.899
    80.7    233.0     4.827
   80.75    232.0    4.8166
    80.8    235.0    4.8477
   80.85    241.0    4.9092
    80.9    257.0    5.0695
   80.95    274.0    5.2345
    81.0    292.0    5.4037
   81.05    309.0    5.5588
    81.1    333.0    5.7706
   81.15    360.0       6.0
    81.2    381.0    6.1725
   81.25    387.0    6.2209
    81.3    387.0    6.2209
   81.35    386.0    6.2129
    81.4    382.0    6.1806
   81.45    368.0    6.0663
    81.5    363.0    6.0249
   81.55    352.0     5.933
    81.6    337.0    5.8052
   81.65    321.0    5.6657
    81.7    297.0    5.4498
   81.75    281.0    5.3009
    81.8    265.0    5.1478
   81.85    255.0    5.0498
    81.9    251.0      5.01
   81.95    237.0    4.8683
    82.0    238.0    4.8785
   82.05    237.0    4.8683
    82.1    228.0    4.7749
   82.15    240.0     4.899
    82.2    234.0    4.8374
   82.25    226.0    4.7539
    82.3    229.0    4.7854
   82.35    228.0    4.7749
    82.4    233.0     4.827
   82.45    243.0    4.9295
    82.5    241.0    4.9092
   82.55    257.0    5.0695
    82.6    279.0     5.282
   82.65    305.0    5.5227
    82.7    345.0    5.8737
   82.75    410.0    6.4031
    82.8    455.0    6.7454
   82.85    545.0    7.3824
    82.9    622.0    7.8867
   82.95    673.0    8.2037
    83.0    725.0    8.5147
   83.05    717.0    8.4676
    83.1    661.0    8.1302
   83.15    592.0    7.6942
    83.2    518.0    7.1972
   83.25    443.0    6.6558
    83.3    371.0     6.091
   83.35    336.0    5.7966
    83.4    290.0    5.3852
   83.45    265.0    5.1478
    83.5    252.0      5.02
   83.55    250.0       5.0
    83.6    244.0    4.9396
   83.65    242.0    4.9193
    83.7    241.0    4.9092
   83.75    243.0    4.9295
    83.8    248.0      4.98
   83.85    253.0    5.0299
    83.9    252.0      5.02
   83.95    264.0    5.1381
    84.0    266.0    5.1575
   84.05    282.0    5.3104
    84.1    291.0    5.3944
   84.15    313.0    5.5946
    84.2    346.0    5.8822
   84.25    374.0    6.1156
    84.3    415.0     6.442
   84.35    430.0    6.5574
    84.4    433.0    6.5803
   84.45    430.0    6.5574
    84.5    406.0    6.3718
   84.55    384.0    6.1968
    84.6    349.0    5.9076
   84.65    318.0    5.6391
    84.7    307.0    5.5408
   84.75    298.0    5.4589
    84.8    296.0    5.4406
   84.85    304.0    5.5136
    84.9    313.0    5.5946
   84.95    328.0    5.7271
    85.0    346.0    5.8822
   85.05    341.0    5.8395
    85.1    335.0    5.7879
   85.15    324.0    5.6921
    85.2    336.0    5.7966
   85.25    341.0    5.8395
    85.3    341.0    5.8395
   85.35    370.0    6.0828
    85.4    414.0    6.4343
   85.45    442.0    6.6483
    85.5    490.0       7.0
   85.55    520.0    7.2111
    85.6    532.0    7.2938
   85.65    548.0    7.4027
    85.7    561.0      7.49
   85.75    567.0    7.5299
    85.8    585.0    7.6485
   85.85    584.0     7.642
    85.9    558.0    7.4699
   85.95    527.0    7.2595
    86.0    481.0    6.9354
   86.05    424.0    6.5115
    86.1    370.0    6.0828
   86.15    333.0    5.7706
    86.2    312.0    5.5857
   86.25    301.0    5.4863
    86.3    307.0    5.5408
   86.35    314.0    5.6036
    86.4    340.0     5.831
   86.45    379.0    6.1563
    86.5    427.0    6.5345
   86.55    467.0    6.8337
    86.6    535.0    7.3144
   86.65    584.0     7.642
    86.7    602.0    7.7589
   86.75    580.0    7.6158
    86.8    532.0    7.2938
   86.85    481.0    6.9354
    86.9    426.0    6.5269
   86.95    379.0    6.1563
    87.0    329.0    5.7359
   87.05    303.0    5.5045
    87.1    288.0    5.3666
   87.15    271.0    5.2058
    87.2    269.0    5.1865
   87.25    267.0    5.1672
    87.3    263.0    5.1284
   87.35    267.0    5.1672
    87.4    260.0     5.099
   87.45    260.0     5.099
    87.5    263.0    5.1284
   87.55    263.0    5.1284
    87.6    270.0    5.1962
   87.65    278.0    5.2726
    87.7    293.0    5.4129
   87.75    318.0    5.6391
    87.8    364.0    6.0332
   87.85    424.0    6.5115
    87.9    512.0    7.1554
   87.95    643.0    8.0187
    88.0    817.0    9.0388
   88.05    982.0    9.9096
    88.1   1163.0   10.7842
   88.15   1289.0   11.3534
    88.2   1373.0   11.7175
   88.25   1393.0   11.8025
    88.3   1348.0   11.6103
   88.35   1244.0   11.1535
    88.4   1157.0   10.7564
   88.45   1077.0   10.3779
    88.5   1020.0   10.0995
   88.55    965.0    9.8234
    88.6    907.0    9.5237
   88.65    858.0    9.2628
    88.7    771.0    8.7807
   88.75    647.0    8.0436
    88.8    555.0    7.4498
   88.85    468.0    6.8411
    88.9    405.0     6.364
   88.95    348.0    5.8992
    89.0    316.0    5.6214
   89.05    291.0    5.3944
    89.1    277.0    5.2631
   89.15    278.0    5.2726
    89.2    270.0    5.1962
   89.25    262.0    5.1186
    89.3    268.0    5.1769
   89.35    270.0    5.1962
    89.4    279.0     5.282
   89.45    287.0    5.3572
    89.5    300.0    5.4772
   89.55    319.0     5.648
    89.6    347.0    5.8907
   89.65    378.0    6.1482
    89.7    420.0    6.4807
   89.75    469.0    6.8484
    89.8    536.0    7.3212
   89.85    645.0    8.0312
    89.9    773.0     8.792
   89.95    925.0    9.6177
    90.0   1115.0   10.5594
   90.05   1254.0   11.1982
    90.1   1367.0   11.6919
   90.15   1400.0   11.8322
    90.2   1327.0   11.5195
   90.25   1188.0   10.8995
    90.3   1038.0   10.1882
   90.35    879.0    9.3755
    90.4    738.0    8.5907
   90.45    644.0     8.025
    90.5    594.0    7.7071
   90.55    601.0    7.7524
    90.6    643.0    8.0187
   90.65    697.0    8.3487
    90.7    786.0    8.8657
   90.75    842.0    9.1761
    90.8    847.0    9.2033
   90.85    791.0    8.8938
    90.9    702.0    8.3785
   90.95    592.0    7.6942
    91.0    508.0    7.1274
   91.05    418.0    6.4653
    91.1    362.0    6.0166
   91.15    328.0    5.7271
    91.2    299.0    5.4681
   91.25    279.0     5.282
    91.3    270.0    5.1962
   91.35    257.0    5.0695
    91.4    253.0    5.0299
   91.45    258.0    5.0794
    91.5    257.0    5.0695
   91.55    249.0      4.99
    91.6    245.0    4.9497
   91.65    257.0    5.0695
    91.7    260.0     5.099
   91.75    284.0    5.3292
    91.8    296.0    5.4406
   91.85    322.0    5.6745
    91.9    343.0    5.8566
   91.95    382.0    6.1806
    92.0    405.0     6.364
   92.05    411.0    6.4109
    92.1    416.0    6.4498
   92.15    406.0    6.3718
    92.2    372.0    6.0992
   92.25    353.0    5.9414
    92.3    330.0    5.7446
   92.35    317.0    5.6303
    92.4    313.0    5.5946
   92.45    312.0    5.5857
    92.5    309.0    5.5588
   92.55    303.0    5.5045
    92.6    288.0    5.3666
   92.65    276.0    5.2536
    92.7    264.0    5.1381
   92.75    246.0    4.9598
    92.8    249.0      4.99
   92.85    241.0    4.9092
    92.9    251.0      5.01
   92.95    243.0    4.9295
    93.0    246.0    4.9598
   93.05    246.0    4.9598
    93.1    249.0      4.99
   93.15    244.0    4.9396
    93.2    252.0      5.02
   93.25    252.0      5.02
    93.3    258.0    5.0794
   93.35    265.0    5.1478
    93.4    263.0    5.1284
   93.45    284.0    5.3292
    93.5    299.0    5.4681
   93.55    320.0    5.6569
    93.6    344.0    5.8652
   93.65    363.0    6.0249
    93.7    372.0    6.0992
   93.75    358.0    5.9833
    93.8    351.0    5.9245
   93.85    354.0    5.9498
    93.9    330.0    5.7446
   93.95    322.0    5.6745
    94.0    334.0    5.7793
   94.05    339.0    5.8224
    94.1    345.0    5.8737
   94.15    357.0    5.9749
    94.2    360.0       6.0
   94.25    358.0    5.9833
    94.3    372.0    6.0992
   94.35    425.0    6.5192
    94.4    511.0    7.1484
   94.45    626.0     7.912
    94.5    770.0     8.775
   94.55    946.0    9.7263
    94.6   1118.0   10.5736
   94.65   1205.0   10.9772
    94.7   1227.0    11.077
   94.75   1157.0   10.7564
    94.8   1041.0   10.2029
   94.85    873.0    9.3434
    94.9    715.0    8.4558
   94.95    562.0    7.4967
    95.0    446.0    6.6783
   95.05    377.0      6.14
    95.1    332.0    5.7619
   95.15    297.0    5.4498
    95.2    282.0    5.3104
   95.25    276.0    5.2536
    95.3    264.0    5.1381
   95.35    261.0    5.1088
    95.4    266.0    5.1575
   95.45    261.0    5.1088
    95.5    253.0    5.0299
   95.55    258.0    5.0794
    95.6    262.0    5.1186
   95.65    260.0     5.099
    95.7    283.0    5.3198
   95.75    307.0    5.5408
    95.8    344.0    5.8652
   95.85    402.0    6.3403
    95.9    453.0    6.7305
   95.95    529.0    7.2732
    96.0    604.0    7.7717
   96.05    661.0    8.1302
    96.1    672.0    8.1976
   96.15    629.0     7.931
    96.2    588.0    7.6681
   96.25    510.0    7.1414
    96.3    440.0    6.6332
   96.35    377.0      6.14
    96.4    330.0    5.7446
   96.45    301.0    5.4863
    96.5    280.0    5.2915
   96.55    269.0    5.1865
    96.6    258.0    5.0794
   96.65    252.0      5.02
    96.7    251.0      5.01
   96.75    252.0      5.02
    96.8    256.0    5.0596
   96.85    253.0    5.0299
    96.9    253.0    5.0299
   96.95    253.0    5.0299
    97.0    262.0    5.1186
   97.05    265.0    5.1478
    97.1    284.0    5.3292
   97.15    291.0    5.3944
    97.2    323.0    5.6833
   97.25    374.0    6.1156
    97.3    431.0    6.5651
   97.35    511.0    7.1484
    97.4    602.0    7.7589
   97.45    678.0    8.2341
    97.5    743.0    8.6197
   97.55    756.0    8.6948
    97.6    717.0    8.4676
   97.65    657.0    8.1056
    97.7    581.0    7.6223
   97.75    490.0       7.0
    97.8    418.0    6.4653
   97.85    364.0    6.0332
    97.9    335.0    5.7879
   97.95    306.0    5.5317
    98.0    290.0    5.3852
   98.05    286.0    5.3479
    98.1    283.0    5.3198
   98.15    283.0    5.3198
    98.2    274.0    5.2345
   98.25    262.0    5.1186
    98.3    266.0    5.1575
   98.35    261.0    5.1088
    98.4    261.0    5.1088
   98.45    264.0    5.1381
    98.5    269.0    5.1865
   98.55    278.0    5.2726
    98.6    288.0    5.3666
   98.65    306.0    5.5317
    98.7    319.0     5.648
   98.75    330.0    5.7446
    98.8    343.0    5.8566
   98.85    341.0    5.8395
    98.9    325.0    5.7009
   98.95    318.0    5.6391
    99.0    298.0    5.4589
   99.05    299.0    5.4681
    99.1    288.0    5.3666
   99.15    309.0    5.5588
    99.2    344.0    5.8652
   99.25    382.0    6.1806
    99.3    422.0    6.4962
   99.35    470.0    6.8557
    99.4    512.0    7.1554
   99.45    514.0    7.1694
    99.5    515.0    7.1764
   99.55    488.0    6.9857
    99.6    440.0    6.6332
   99.65    396.0    6.2929
    99.7    366.0    6.0498
   99.75    332.0    5.7619
    99.8    311.0    5.5767
   99.85    305.0    5.5227
    99.9    300.0    5.4772
   99.95    293.0    5.4129
   100.0    286.0    5.3479
  100.05    306.0    5.5317
   100.1    313.0    5.5946
  100.15    317.0    5.6303
   100.2    327.0    5.7184
  100.25    343.0    5.8566
   100.3    330.0    5.7446
  100.35    320.0    5.6569
   100.4    307.0    5.5408
  100.45    298.0    5.4589
   100.5    282.0    5.3104
  100.55    274.0    5.2345
   100.6    266.0    5.1575
  100.65    274.0    5.2345
   100.7    271.0    5.2058
  100.75    274.0    5.2345
   100.8    290.0    5.3852
  100.85    302.0    5.4955
   100.9    321.0    5.6657
  100.95    350.0    5.9161
   101.0    367.0    6.0581
  101.05    386.0    6.2129
   101.1    394.0    6.2769
  101.15    370.0    6.0828
   101.2    356.0    5.9666
  101.25    332.0    5.7619
   101.3    310.0    5.5678
  101.35    288.0    5.3666
   101.4    279.0     5.282
  101.45    281.0    5.3009
   101.5    274.0    5.2345
  101.55    284.0    5.3292
   101.6    280.0    5.2915
  101.65    270.0    5.1962
   101.7    278.0    5.2726
  101.75    269.0    5.1865
   101.8    273.0    5.2249
  101.85    268.0    5.1769
   101.9    267.0    5.1672
  101.95    265.0    5.1478
   102.0    257.0    5.3437
  102.05    258.0    5.3541
   102.1    267.0    5.4467
  102.15    267.0    5.4467
   102.2    277.0    5.5478
  102.25    287.0     5.647
   102.3    302.0    5.7927
  102.35    332.0    6.0736
   102.4    360.0    6.3246
  102.45    411.0    6.7577
   102.5    457.0    7.1259
  102.55    524.0    7.6303
   102.6    608.0    8.2192
  102.65    699.0    8.8129
   102.7    861.0    9.7809
  102.75   1096.0   11.0353
   102.8   1377.0   12.3693
  102.85   1685.0   13.6829
   102.9   1901.0   14.5335
  102.95   2069.0   15.1621
   103.0   2016.0   14.9666
  103.05   1800.0   14.1421
   103.1   1500.0   12.9099
  103.15   1181.0   11.4552
   103.2    937.0   10.2035
  103.25    728.0    8.9938
   103.3    629.0      8.36
  103.35    576.0       8.0
   103.4    556.0    7.8599
  103.45    535.0      7.71
   103.5    519.0    7.5939
  103.55    486.0    7.3485
   103.6    465.0     7.188
  103.65    429.0    6.9041
   103.7    385.0    6.5405
  103.75    361.0    6.3333
   103.8    342.0    6.1644
  103.85    312.0    5.8878
   103.9    293.0    5.7057
  103.95    279.0    5.5678
   104.0    277.0    5.5478
  104.05    265.0    5.4263
   104.1    257.0    5.3437
  104.15    256.0    5.3333
   104.2    250.0    5.2705
  104.25    260.0    5.3748
   104.3    261.0    5.3852
  104.35    258.0    5.3541
   104.4    263.0    5.4058
  104.45    268.0    5.4569
   104.5    284.0    5.6174
  104.55    306.0     5.831
   104.6    325.0    6.0093
  104.65    337.0    6.1192
   104.7    337.0    6.1192
  104.75    344.0    6.1824
   104.8    340.0    6.1464
  104.85    337.0    6.1192
   104.9    328.0    6.0369
  104.95    321.0    5.9722
   105.0    306.0     5.831
  105.05    295.0    5.7252
   105.1    289.0    5.6667
  105.15    281.0    5.5877
   105.2    267.0    5.4467
  105.25    266.0    5.4365
   105.3    270.0    5.4772
  105.35    263.0    5.4058
   105.4    256.0    5.3333
  105.45    266.0    5.4365
   105.5    264.0     5.416
  105.55    259.0    5.3645
   105.6    261.0    5.3852
  105.65    261.0    5.3852
   105.7    258.0    5.3541
  105.75    253.0     5.302
   105.8    248.0    5.2493
  105.85    244.0    5.2068
   105.9    249.0    5.2599
  105.95    251.0     5.281
   106.0    245.0    5.2175
  106.05    245.0    5.2175
   106.1    247.0    5.2387
  106.15    247.0    5.2387
   106.2    254.0    5.3125
  106.25    259.0    5.3645
   106.3    250.0    5.2705
  106.35    251.0     5.281
   106.4    258.0    5.3541
  106.45    252.0    5.2915
   106.5    255.0    5.3229
  106.55    259.0    5.3645
   106.6    256.0    5.3333
  106.65    264.0     5.416
   106.7    268.0    5.4569
  106.75    281.0    5.5877
   106.8    303.0    5.8023
  106.85    331.0    6.0645
   106.9    371.0    6.4205
  106.95    420.0    6.8313
   107.0    484.0    7.3333
  107.05    532.0    7.6884
   107.1    576.0       8.0
  107.15    582.0    8.0416
   107.2    563.0    7.9092
  107.25    527.0    7.6522
   107.3    490.0    7.3786
  107.35    465.0     7.188
   107.4    467.0    7.2034
  107.45    449.0    7.0632
   107.5    416.0    6.7987
  107.55    393.0    6.6081
   107.6    366.0     6.377
  107.65    331.0    6.0645
   107.7    316.0    5.9255
  107.75    297.0    5.7446
   107.8    294.0    5.7155
  107.85    292.0     5.696
   107.9    286.0    5.6372
  107.95    295.0    5.7252
   108.0    306.0    6.1847
  108.05    315.0     6.275
   108.1    334.0    6.4614
  108.15    373.0    6.8282
   108.2    406.0    7.1239
  108.25    447.0     7.475
   108.3    499.0    7.8978
  108.35    507.0    7.9608
   108.4    506.0     7.953
  108.45    488.0    7.8102
   108.5    432.0    7.3485
  108.55    391.0    6.9911
   108.6    342.0    6.5383
  108.65    315.0     6.275
   108.7    292.0    6.0415
  108.75    275.0     5.863
   108.8    274.0    5.8523
  108.85    259.0    5.6899
   108.9    250.0    5.5902
  108.95    258.0    5.6789
   109.0    252.0    5.6125
  109.05    255.0    5.6458
   109.1    254.0    5.6347
  109.15    253.0    5.6236
   109.2    254.0    5.6347
  109.25    252.0    5.6125
   109.3    257.0    5.6679
  109.35    250.0    5.5902
   109.4    255.0    5.6458
  109.45    251.0    5.6013
   109.5    254.0    5.6347
  109.55    260.0    5.7009
   109.6    249.0     5.579
  109.65    253.0    5.6236
   109.7    254.0    5.6347
  109.75    259.0    5.6899
   109.8    268.0    5.7879
  109.85    270.0    5.8095
   109.9    284.0    5.9582
  109.95    305.0    6.1745
   110.0    322.0    6.3443
  110.05    364.0    6.7454
   110.1    417.0    7.2198
  110.15    470.0    7.6649
   110.2    573.0    8.4632
  110.25    678.0     9.206
   110.3    771.0    9.8171
  110.35    847.0   10.2896
   110.4    854.0    10.332
  110.45    794.0    9.9624
   110.5    720.0    9.4868
  110.55    611.0    8.7393
   110.6    520.0    8.0623
  110.65    463.0    7.6076
   110.7    412.0    7.1764
  110.75    399.0    7.0622
   110.8    416.0    7.2111
  110.85    428.0    7.3144
   110.9    432.0    7.3485
  110.95    420.0    7.2457
   111.0    402.0    7.0887
  111.05    364.0    6.7454
   111.1    348.0    6.5955
  111.15    334.0    6.4614
   111.2    321.0    6.3344
  111.25    330.0    6.4226
   111.3    342.0    6.5383
  111.35    380.0     6.892
   111.4    385.0    6.9372
  111.45    420.0    7.2457
   111.5    441.0    7.4246
  111.55    465.0     7.624
   111.6    444.0    7.4498
  111.65    406.0    7.1239
   111.7    383.0    6.9192
  111.75    345.0     6.567
   111.8    332.0     6.442
  111.85    321.0    6.3344
   111.9    308.0    6.2048
  111.95    292.0    6.0415
   112.0    303.0    6.1543
  112.05    314.0     6.265
   112.1    333.0    6.4517
  112.15    379.0    6.8829
   112.2    438.0    7.3993
  112.25    505.0    7.9451
   112.3    594.0    8.6168
  112.35    659.0    9.0761
   112.4    717.0     9.467
  112.45    738.0    9.6047
   112.5    710.0    9.4207
  112.55    642.0    8.9582
   112.6    547.0    8.2689
  112.65    492.0    7.8422
   112.7    421.0    7.2543
  112.75    386.0    6.9462
   112.8    344.0    6.5574
  112.85    337.0    6.4904
   112.9    350.0    6.6144
  112.95    364.0    6.7454
   113.0    415.0    7.2024
  113.05    506.0     7.953
   113.1    586.0    8.5586
  113.15    674.0    9.1788
   113.2    750.0    9.6825
  113.25    787.0    9.9184
   113.3    753.0    9.7018
  113.35    682.0    9.2331
   113.4    597.0    8.6386
  113.45    499.0    7.8978
   113.5    417.0    7.2198
  113.55    362.0    6.7268
   113.6    340.0    6.5192
  113.65    302.0    6.1441
   113.7    286.0    5.9791
  113.75    280.0    5.9161
   113.8    283.0    5.9477
  113.85    276.0    5.8737
   113.9    282.0    5.9372
  113.95    284.0    5.9582
   114.0    295.0    6.4918
  114.05    310.0    6.6548
   114.1    319.0    6.7507
  114.15    321.0    6.7718
   114.2    304.0      6.59
  114.25    298.0    6.5247
   114.3    293.0    6.4697
  114.35    283.0    6.3583
   114.4    277.0    6.2906
  114.45    269.0    6.1991
   114.5    265.0    6.1528
  114.55    277.0    6.2906
   114.6    283.0    6.3583
  114.65    283.0    6.3583
   114.7    293.0    6.4697
  114.75    303.0    6.5792
   114.8    320.0    6.7612
  114.85    316.0    6.7188
   114.9    331.0    6.8765
  114.95    346.0    7.0305
   115.0    327.0    6.8348
  115.05    328.0    6.8452
   115.1    306.0    6.6117
  115.15    291.0    6.4476
   115.2    286.0     6.392
  115.25    278.0    6.3019
   115.3    273.0     6.245
  115.35    267.0     6.176
   115.4    272.0    6.2335
  115.45    257.0    6.0592
   115.5    260.0    6.0945
  115.55    265.0    6.1528
   115.6    264.0    6.1412
  115.65    272.0    6.2335
   115.7    270.0    6.2106
  115.75    268.0    6.1875
   115.8    269.0    6.1991
  115.85    287.0    6.4031
   115.9    292.0    6.4587
  115.95    295.0    6.4918
   116.0    317.0    6.7295
  116.05    335.0    6.9179
   116.1    364.0    7.2111
  116.15    410.0    7.6532
   116.2    477.0    8.2549
  116.25    556.0    8.9123
   116.3    642.0    9.5768
  116.35    755.0   10.3854
   116.4    864.0   11.1098
  116.45    946.0   11.6251
   116.5    970.0   11.7716
  116.55    941.0   11.5943
   116.6    870.0   11.1484
  116.65    759.0   10.4129
   116.7    647.0     9.614
  116.75    540.0    8.7831
   116.8    468.0    8.1766
  116.85    418.0    7.7275
   116.9    379.0    7.3582
  116.95    381.0    7.3776
   117.0    405.0    7.6064
  117.05    446.0    7.9821
   117.1    476.0    8.2462
  117.15    523.0    8.6437
   117.2    561.0    8.9523
  117.25    555.0    8.9043
   117.3    529.0    8.6932
  117.35    485.0    8.3238
   117.4    436.0    7.8921
  117.45    398.0    7.5404
   117.5    355.0    7.1214
  117.55    322.0    6.7823
   117.6    304.0      6.59
  117.65    285.0    6.3808
   117.7    270.0    6.2106
  117.75    278.0    6.3019
   117.8    260.0    6.0945
  117.85    268.0    6.1875
   117.9    264.0    6.1412
  117.95    265.0    6.1528
   118.0    263.0    6.1296
  118.05    267.0     6.176
   118.1    286.0     6.392
  118.15    293.0    6.4697
   118.2    291.0    6.4476
  118.25    319.0    6.7507
   118.3    366.0    7.2309
  118.35    411.0    7.6625
   118.4    461.0    8.1152
  118.45    489.0    8.3581
   118.5    521.0    8.6272
  118.55    555.0    8.9043
   118.6    550.0    8.8641
  118.65    511.0     8.544
   118.7    486.0    8.3324
  118.75    436.0    7.8921
   118.8    392.0    7.4833
  118.85    368.0    7.2506
   118.9    330.0    6.8661
  118.95    328.0    6.8452
   119.0    343.0       7.0
  119.05    371.0    7.2801
   119.1    394.0    7.5024
  119.15    441.0    7.9373
   119.2    468.0    8.1766
  119.25    469.0    8.1854
   119.3    456.0    8.0711
  119.35    416.0     7.709
   119.4    394.0    7.5024
  119.45    361.0    7.1813
   119.5    330.0    6.8661
  119.55    312.0    6.6762
   119.6    293.0    6.4697
  119.65    285.0    6.3808
   119.7    286.0     6.392
  119.75    275.0    6.2678
   119.8    274.0    6.2564
  119.85    281.0    6.3358
   119.9    279.0    6.3133
  119.95    298.0    6.5247
   120.0    312.0    7.2111
  120.05    331.0    7.4274
   120.1    375.0    7.9057
  120.15    406.0     8.226
   120.2    452.0    8.6795
  120.25    506.0    9.1833
   120.3    546.0    9.5394
  120.35    568.0    9.7297
   120.4    589.0    9.9079
  120.45    588.0    9.8995
   120.5    537.0    9.4604
  120.55    498.0    9.1104
   120.6    463.0    8.7845
  120.65    402.0    8.1854
   120.7    386.0    8.0208
  120.75    361.0    7.7567
   120.8    350.0    7.6376
  120.85    330.0    7.4162
   120.9    338.0    7.5056
  120.95    359.0    7.7352
   121.0    364.0    7.7889
  121.05    385.0    8.0104
   121.1    436.0    8.5245
  121.15    474.0    8.8882
   121.2    544.0    9.5219
  121.25    647.0   10.3843
   121.3    695.0   10.7626
  121.35    763.0   11.2768
   121.4    802.0   11.5614
  121.45    812.0   11.6333
   121.5    756.0    11.225
  121.55    669.0   10.5594
   121.6    606.0   10.0499
  121.65    527.0    9.3719
   121.7    452.0    8.6795
  121.75    409.0    8.2563
   121.8    376.0    7.9162
  121.85    368.0    7.8316
   121.9    391.0    8.0726
  121.95    400.0     8.165
   122.0    444.0    8.6023
  122.05    481.0    8.9536
   122.1    518.0    9.2916
  122.15    556.0    9.6264
   122.2    577.0    9.8065
  122.25    575.0    9.7895
   122.3    557.0     9.635
  122.35    552.0    9.5917
   122.4    562.0    9.6782
  122.45    592.0    9.9331
   122.5    596.0    9.9666
  122.55    583.0    9.8573
   122.6    552.0    9.5917
  122.65    512.0    9.2376
   122.7    482.0    8.9629
  122.75    439.0    8.5538
   122.8    385.0    8.0104
  122.85    342.0    7.5498
   122.9    316.0    7.2572
  122.95    300.0    7.0711
   123.0    287.0    6.9162
  123.05    279.0    6.8191
   123.1    267.0    6.6708
  123.15    269.0    6.6958
   123.2    269.0    6.6958
  123.25    271.0    6.7206
   123.3    261.0    6.5955
  123.35    261.0    6.5955
   123.4    265.0    6.6458
  123.45    252.0    6.4807
   123.5    260.0    6.5828
  123.55    263.0    6.6207
   123.6    265.0    6.6458
  123.65    260.0    6.5828
   123.7    274.0    6.7577
  123.75    267.0    6.6708
   123.8    271.0    6.7206
  123.85    274.0    6.7577
   123.9    269.0    6.6958
  123.95    264.0    6.6332
   124.0    277.0    6.7946
  124.05    272.0     6.733
   124.1    277.0    6.7946
  124.15    282.0    6.8557
   124.2    290.0    6.9522
  124.25    293.0    6.9881
   124.3    294.0       7.0
  124.35    300.0    7.0711
   124.4    325.0    7.3598
  124.45    348.0    7.6158
   124.5    382.0    7.9791
  124.55    412.0    8.2865
   124.6    466.0    8.8129
  124.65    513.0    9.2466
   124.7    562.0    9.6782
  124.75    585.0    9.8742
   124.8    608.0   10.0664
  124.85    619.0   10.1571
   124.9    594.0    9.9499
  124.95    567.0    9.7211
   125.0    526.0     9.363
  125.05    518.0    9.2916
   125.1    501.0    9.1378
  125.15    480.0    8.9443
   125.2    470.0    8.8506
  125.25    465.0    8.8034
   125.3    469.0    8.8412
  125.35    458.0    8.7369
   125.4    438.0     8.544
  125.45    448.0     8.641
   125.5    470.0    8.8506
  125.55    470.0    8.8506
   125.6    500.0    9.1287
  125.65    505.0    9.1742
   125.7    519.0    9.3005
  125.75    517.0    9.2826
   125.8    517.0    9.2826
  125.85    502.0    9.1469
   125.9    460.0    8.7559
  125.95    410.0    8.2664
   126.0    375.0    8.6603
  126.05    347.0    8.3307
   126.1    347.0    8.3307
  126.15    318.0     7.975
   126.2    310.0     7.874
  126.25    302.0    7.7717
   126.3    311.0    7.8867
  126.35    326.0    8.0747
   126.4    320.0       8.0
  126.45    334.0    8.1731
   126.5    374.0    8.6487
  126.55    444.0    9.4234
   126.6    484.0    9.8387
  126.65    561.0   10.5925
   126.7    647.0   11.3754
  126.75    699.0   11.8237
   126.8    747.0   12.2229
  126.85    767.0   12.3855
   126.9    749.0   12.2393
  126.95    723.0    12.025
   127.0    664.0   11.5239
  127.05    619.0   11.1265
   127.1    578.0   10.7517
  127.15    553.0   10.5167
   127.2    541.0   10.4019
  127.25    530.0   10.2956
   127.3    530.0   10.2956
  127.35    525.0    10.247
   127.4    517.0   10.1686
  127.45    493.0    9.9298
   127.5    482.0    9.8183
  127.55    456.0    9.5499
   127.6    423.0    9.1978
  127.65    383.0    8.7521
   127.7    380.0    8.7178
  127.75    343.0    8.2825
   127.8    326.0    8.0747
  127.85    314.0    7.9246
   127.9    302.0    7.7717
  127.95    303.0    7.7846
   128.0    290.0    7.6158
  128.05    290.0    7.6158
   128.1    293.0    7.6551
  128.15    277.0    7.4431
   128.2    286.0    7.5631
  128.25    309.0    7.8613
   128.3    327.0     8.087
  128.35    357.0    8.4499
   128.4    396.0    8.8994
  128.45    468.0    9.6747
   128.5    529.0   10.2859
  128.55    590.0   10.8628
   128.6    649.0    11.393
  128.65    699.0   11.8237
   128.7    720.0      12.0
  128.75    705.0   11.8743
   128.8    672.0   11.5931
  128.85    635.0   11.2694
   128.9    604.0   10.9909
  128.95    564.0   10.6207
   129.0    548.0    10.469
  129.05    537.0   10.3634
   129.1    564.0   10.6207
  129.15    588.0   10.8444
   129.2    611.0   11.0544
  129.25    636.0   11.2783
   129.3    636.0   11.2783
  129.35    606.0   11.0091
   129.4    600.0   10.9545
  129.45    560.0    10.583
   129.5    512.0   10.1193
  129.55    473.0    9.7263
   129.6    453.0    9.5184
  129.65    428.0     9.252
   129.7    390.0    8.8318
  129.75    393.0    8.8657
   129.8    401.0    8.9554
  129.85    395.0    8.8882
   129.9    440.0    9.3808
  129.95    479.0    9.7877
   130.0    549.0   10.4785
  130.05    618.0   11.1176
   130.1    675.0   11.6189
  130.15    746.0   12.2147
   130.2    803.0   12.6728
  130.25    805.0   12.6886
   130.3    788.0   12.5539
  130.35    748.0   12.2311
   130.4    671.0   11.5845
  130.45    621.0   11.1445
   130.5    544.0   10.4307
  130.55    460.0    9.5917
   130.6    421.0    9.1761
  130.65    384.0    8.7636
   130.7    343.0    8.2825
  130.75    321.0    8.0125
   130.8    298.0    7.7201
  130.85    278.0    7.4565
   130.9    287.0    7.5763
  130.95    280.0    7.4833
   131.0    268.0    7.3212
  131.05    281.0    7.4967
   131.1    272.0    7.3756
  131.15    287.0    7.5763
   131.2    282.0      7.51
  131.25    284.0    7.5366
   131.3    300.0     7.746
  131.35    303.0    7.7846
   131.4    309.0    7.8613
  131.45    322.0     8.025
   131.5    340.0    8.2462
  131.55    347.0    8.3307
   131.6    370.0    8.6023
  131.65    401.0    8.9554
   131.7    420.0    9.1652
  131.75    451.0    9.4974
   131.8    491.0    9.9096
  131.85    508.0   10.0797
   131.9    530.0   10.2956
  131.95    531.0   10.3053
   132.0    522.0   10.2176
  132.05    484.0      11.0
   132.1    468.0   10.8167
  132.15    427.0    10.332
   132.2    379.0     9.734
  132.25    365.0    9.5525
   132.3    344.0    9.2736
  132.35    321.0    8.9582
   132.4    294.0    8.5732
  132.45    291.0    8.5294
   132.5    284.0    8.4261
  132.55    264.0     8.124
   132.6    281.0    8.3815
  132.65    261.0    8.0777
   132.7    256.0       8.0
  132.75    261.0    8.0777
   132.8    266.0    8.1548
  132.85    264.0     8.124
   132.9    258.0    8.0312
  132.95    262.0    8.0932
   133.0    250.0    7.9057
  133.05    261.0    8.0777
   133.1    257.0    8.0156
  133.15    253.0     7.953
   133.2    247.0    7.8581
  133.25    259.0    8.0467
   133.3    259.0    8.0467
  133.35    256.0       8.0
   133.4    253.0     7.953
  133.45    256.0       8.0
   133.5    257.0    8.0156
  133.55    261.0    8.0777
   133.6    246.0    7.8422
  133.65    247.0    7.8581
   133.7    250.0    7.9057
  133.75    270.0    8.2158
   133.8    254.0    7.9687
  133.85    245.0    7.8262
   133.9    254.0    7.9687
  133.95    274.0    8.2765
   134.0    272.0    8.2462
  134.05    253.0     7.953
   134.1    260.0    8.0623
  134.15    272.0    8.2462
   134.2    265.0    8.1394
  134.25    267.0    8.1701
   134.3    276.0    8.3066
  134.35    280.0    8.3666
   134.4    289.0       8.5
  134.45    318.0    8.9163
   134.5    331.0    9.0967
  134.55    366.0    9.5656
   134.6    386.0    9.8234
  134.65    426.0   10.3199
   134.7    461.0   10.7355
  134.75    495.0   11.1243
   134.8    532.0   11.5326
  134.85    591.0   12.1552
   134.9    627.0     12.52
  134.95    616.0   12.4097
   135.0    634.0   12.5897
  135.05    668.0   12.9228
   135.1    645.0   12.6984
  135.15    620.0   12.4499
   135.2    607.0   12.3187
  135.25    560.0   11.8322
   135.3    518.0   11.3798
  135.35    470.0   10.8397
   135.4    445.0   10.5475
  135.45    398.0     9.975
   135.5    376.0    9.6954
  135.55    336.0    9.1652
   135.6    325.0    9.0139
  135.65    301.0    8.6747
   135.7    303.0    8.7034
  135.75    275.0    8.2916
   135.8    273.0    8.2614
  135.85    288.0    8.4853
   135.9    278.0    8.3367
  135.95    274.0    8.2765
   136.0    273.0    8.2614
  136.05    260.0    8.0623
   136.1    268.0    8.1854
  136.15    276.0    8.3066
   136.2    276.0    8.3066
  136.25    294.0    8.5732
   136.3    293.0    8.5586
  136.35    277.0    8.3217
   136.4    292.0     8.544
  136.45    284.0    8.4261
   136.5    273.0    8.2614
  136.55    291.0    8.5294
   136.6    287.0    8.4705
  136.65    303.0    8.7034
   136.7    306.0    8.7464
  136.75    315.0    8.8741
   136.8    333.0    9.1241
  136.85    367.0    9.5786
   136.9    387.0    9.8362
  136.95    404.0   10.0499
   137.0    440.0   10.4881
  137.05    480.0   10.9545
   137.1    533.0   11.5434
  137.15    601.0   12.2577
   137.2    620.0   12.4499
  137.25    647.0   12.7181
   137.3    663.0   12.8744
  137.35    652.0   12.7671
   137.4    665.0   12.8938
  137.45    630.0   12.5499
   137.5    628.0     12.53
  137.55    577.0   12.0104
   137.6    520.0   11.4018
  137.65    472.0   10.8628
   137.7    453.0   10.6419
  137.75    413.0   10.1612
   137.8    412.0   10.1489
  137.85    396.0    9.9499
   137.9    361.0   10.9697
  137.95    370.0   11.1056
   138.0    402.0   11.5758
  138.05    389.0   11.3871
   138.1    423.0   11.8743
  138.15    452.0   12.2746
   138.2    469.0   12.5033
  138.25    498.0   12.8841
   138.3    535.0   13.3541
  138.35    538.0   13.3915
   138.4    564.0   13.7113
  138.45    572.0   13.8082
   138.5    585.0   13.9642
  138.55    574.0   13.8323
   138.6    543.0   13.4536
  138.65    495.0   12.8452
   138.7    484.0   12.7017
  138.75    460.0   12.3828
   138.8    428.0   11.9443
  138.85    375.0   11.1803
   138.9    341.0   10.6615
  138.95    340.0   10.6458
   139.0    312.0    10.198
  139.05    309.0   10.1489
   139.1    288.0     9.798
  139.15    271.0    9.5044
   139.2    273.0    9.5394
  139.25    267.0     9.434
   139.3    255.0    9.2195
  139.35    266.0    9.4163
   139.4    261.0    9.3274
  139.45    269.0    9.4692
   139.5    257.0    9.2556
  139.55    249.0    9.1104
   139.6    245.0     9.037
  139.65    259.0    9.2916
   139.7    258.0    9.2736
  139.75    259.0    9.2916
   139.8    268.0    9.4516
  139.85    279.0    9.6437
   139.9    256.0    9.2376
  139.95    259.0    9.2916
   140.0    287.0    9.7809
  140.05    269.0    9.4692
   140.1    281.0    9.6782
  140.15    268.0    9.4516
   140.2    277.0     9.609
  140.25    278.0    9.6264
   140.3    287.0    9.7809
  140.35    277.0     9.609
   140.4    285.0    9.7468
  140.45    284.0    9.7297
   140.5    278.0    9.6264
  140.55    288.0     9.798
   140.6    279.0    9.6437
  140.65    287.0    9.7809
   140.7    289.0     9.815
  140.75    308.0   10.1325
   140.8    308.0   10.1325
  140.85    288.0     9.798
   140.9    302.0   10.0333
  140.95    295.0    9.9163
   141.0    301.0   10.0167
  141.05    303.0   10.0499
   141.1    294.0    9.8995
  141.15    287.0    9.7809
   141.2    279.0    9.6437
  141.25    279.0    9.6437
   141.3    276.0    9.5917
  141.35    275.0    9.5743
   141.4    264.0    9.3808
  141.45    274.0    9.5568
   141.5    269.0    9.4692
  141.55    269.0    9.4692
   141.6    268.0    9.4516
  141.65    261.0    9.3274
   141.7    256.0    9.2376
  141.75    284.0    9.7297
   141.8    279.0    9.6437
  141.85    280.0    9.6609
   141.9    296.0    9.9331
  141.95    297.0    9.9499
   142.0    296.0    9.9331
  142.05    308.0   10.1325
   142.1    301.0   10.0167
  142.15    300.0      10.0
   142.2    297.0    9.9499
  142.25    300.0      10.0
   142.3    289.0     9.815
  142.35    290.0    9.8319
   142.4    274.0    9.5568
  142.45    275.0    9.5743
   142.5    264.0    9.3808
  142.55    262.0    9.3452
   142.6    249.0    9.1104
  142.65    251.0    9.1469
   142.7    248.0    9.0921
  142.75    252.0    9.1652
   142.8    249.0    9.1104
  142.85    249.0    9.1104
   142.9    262.0    9.3452
  142.95    251.0    9.1469
   143.0    239.0    8.9256
  143.05    263.0     9.363
   143.1    265.0    9.3986
  143.15    240.0    8.9443
   143.2    236.0    8.8694
  143.25    250.0    9.1287
   143.3    248.0    9.0921
  143.35    248.0    9.0921
   143.4    254.0    9.2014
  143.45    262.0    9.3452
   143.5    252.0    9.1652
  143.55    246.0    9.0554
   143.6    250.0    9.1287
  143.65    251.0    9.1469
   143.7    247.0    9.0738
  143.75    248.0    9.0921
   143.8    254.0    9.2014
  143.85    236.0    8.8694
   143.9    251.0    9.1469
  143.95    247.0    9.0738
   144.0    254.0    9.2014
  144.05    248.0    9.0921
   144.1    259.0   11.3798
  144.15    259.0   11.3798
   144.2    274.0   11.7047
  144.25    263.0   11.4673
   144.3    287.0   11.9791
  144.35    283.0   11.8954
   144.4    281.0   11.8533
  144.45    296.0   12.1655
   144.5    292.0    12.083
  144.55    323.0   12.7083
   144.6    330.0   12.8452
  144.65    339.0   13.0192
   144.7    358.0   13.3791
  144.75    349.0   13.2098
   144.8    365.0   13.5093
  144.85    399.0   14.1244
   144.9    406.0   14.2478
  144.95    428.0   14.6287
   145.0    413.0   14.3701
  145.05    439.0   14.8155
   145.1    418.0   14.4568
  145.15    425.0   14.5774
   145.2    411.0   14.3353
  145.25    417.0   14.4395
   145.3    391.0   13.9821
  145.35    393.0   14.0178
   145.4    386.0   13.8924
  145.45    359.0   13.3978
   145.5    381.0   13.8022
  145.55    363.0   13.4722
   145.6    364.0   13.4907
  145.65    375.0   13.6931
   145.7    379.0   13.7659
  145.75    392.0      14.0
   145.8    402.0   14.1774
  145.85    436.0   14.7648
   145.9    451.0   15.0167
  145.95    463.0   15.2151
   146.0    452.0   15.0333
  146.05    449.0   14.9833
   146.1    479.0   15.4758
  146.15    485.0   15.5724
   146.2    484.0   15.5563
  146.25    472.0   15.3623
   146.3    508.0   15.9374
  146.35    518.0   16.0935
   146.4    523.0    16.171
  146.45    561.0   16.7481
   146.5    559.0   16.7183
  146.55    573.0   16.9263
   146.6    545.0   16.5076
  146.65    561.0   16.7481
   146.7    568.0   16.8523
  146.75    573.0   16.9263
   146.8    562.0   16.7631
  146.85    573.0   16.9263
   146.9    565.0   16.8077
  146.95    499.0   15.7956
   147.0    496.0    15.748
  147.05    488.0   15.6205
   147.1    449.0   14.9833
  147.15    442.0   14.8661
   147.2    391.0   13.9821
  147.25    387.0   13.9104
   147.3    390.0   13.9642
  147.35    359.0   13.3978
   147.4    338.0      13.0
  147.45    321.0   12.6689
   147.5    322.0   12.6886
  147.55    327.0   12.7867
   147.6    338.0      13.0
  147.65    306.0   12.3693
   147.7    290.0   12.0416
  147.75    320.0   12.6491
   147.8    308.0   12.4097
  147.85    300.0   12.2474
   147.9    307.0   12.3895
  147.95    306.0   12.3693
   148.0    314.0     12.53
  148.05    318.0   12.6095
   148.1    298.0   12.2066
  148.15    313.0     12.51
   148.2    303.0   12.3085
  148.25    302.0   12.2882
   148.3    333.0   12.9035
  148.35    285.0   11.9373
   148.4    312.0     12.49
  148.45    312.0     12.49
   148.5    285.0   11.9373
  148.55    290.0   12.0416
   148.6    288.0      12.0
  148.65    294.0   12.1244
   148.7    314.0     12.53
  148.75    300.0   12.2474
   148.8    306.0   12.3693
  148.85    293.0   12.1037
   148.9    299.0    12.227
  148.95    328.0   12.8062
   149.0    325.0   12.7475
  149.05    328.0   12.8062
   149.1    317.0   12.5897
  149.15    292.0    12.083
   149.2    321.0   12.6689
  149.25    291.0   12.0623
   149.3    302.0   12.2882
  149.35    291.0   12.0623
   149.4    297.0   12.1861
  149.45    301.0   12.2678
   149.5    270.0   11.6189
  149.55    262.0   11.4455
   149.6    277.0   11.7686
  149.65    258.0   11.3578
   149.7    258.0   11.3578
  149.75    243.0   11.0227
   149.8    269.0   11.5974
  149.85    257.0   11.3358
   149.9    257.0   11.3358
  149.95    240.0   10.9545
   150.0    282.0   16.7929
  150.05    245.0   15.6525
   150.1    243.0   15.5885
  150.15    260.0   16.1245
   150.2    255.0   15.9687
  150.25    275.0   16.5831
   150.3    255.0   15.9687
  150.35    270.0   16.4317
   150.4    286.0   16.9115
  150.45    271.0   16.4621
   150.5    258.0   16.0624
  150.55    309.0   17.5784
   150.6    299.0   17.2916
  150.65    297.0   17.2337
   150.7    304.0   17.4356
  150.75    319.0   17.8606
   150.8    314.0     17.72
  150.85    290.0   17.0294
   150.9    338.0   18.3848
  150.95    316.0   17.7764
   151.0    341.0   18.4662
  151.05    384.0   19.5959
   151.1    360.0   18.9737
  151.15    367.0   19.1572
   151.2    383.0   19.5704
  151.25    366.0   19.1311
   151.3    369.0   19.2094
  151.35    363.0   19.0526
   151.4    332.0   18.2209
  151.45    325.0   18.0278
   151.5    334.0   18.2757
  151.55    373.0   19.3132
   151.6    336.0   18.3303
  151.65    313.0   17.6918
   151.7    339.0    18.412
  151.75    325.0   18.0278
   151.8    307.0   17.5214
  151.85    277.0   16.6433
   151.9    286.0   16.9115
  151.95    305.0   17.4642
   152.0    277.0   16.6433
  152.05    262.0   16.1864
   152.1    262.0   16.1864
  152.15    241.0   15.5242
   152.2    251.0    15.843
  152.25    260.0   16.1245
   152.3    245.0   15.6525
  152.35    249.0   15.7797
   152.4    260.0   16.1245
  152.45    256.0      16.0
   152.5    242.0   15.5563
  152.55    258.0   16.0624
   152.6    248.0    15.748
  152.65    235.0   15.3297
   152.7    245.0   15.6525
  152.75    248.0    15.748
   152.8    281.0   16.7631
  152.85    228.0   15.0997
   152.9    230.0   15.1658
  152.95    212.0   14.5602
   153.0    237.0   15.3948
  153.05    244.0   15.6205
   153.1    231.0   15.1987
  153.15    266.0   16.3095
   153.2    231.0   15.1987
  153.25    234.0   15.2971
   153.3    247.0   15.7162
  153.35    264.0   16.2481
   153.4    247.0   15.7162
  153.45    261.0   16.1555
   153.5    223.0   14.9332
  153.55    242.0   15.5563
   153.6    271.0   16.4621
  153.65    247.0   15.7162
   153.7    249.0   15.7797
  153.75    251.0    15.843
   153.8    232.0   15.2315
  153.85    225.0      15.0
   153.9    255.0   15.9687
  153.95    209.0   14.4568
   154.0    266.0   16.3095
  154.05    255.0   15.9687
   154.1    273.0   16.5227
  154.15    250.0   15.8114
   154.2    234.0   15.2971
  154.25    257.0   16.0312
   154.3    250.0   15.8114
  154.35    270.0   16.4317
   154.4    262.0   16.1864
  154.45    281.0   16.7631
   154.5    257.0   16.0312
  154.55    260.0   16.1245
   154.6    257.0   16.0312
  154.65    242.0   15.5563
   154.7    255.0   15.9687
  154.75    250.0   15.8114
   154.8    274.0   16.5529
  154.85    288.0   16.9706
   154.9    275.0   16.5831
  154.95    277.0   16.6433
   155.0    278.0   16.6733
  155.05    264.0   16.2481
   155.1    298.0   17.2627
  155.15    312.0   17.6635
   155.2    282.0   16.7929
  155.25    314.0     17.72
   155.3    341.0   18.4662
  155.35    314.0     17.72
   155.4    295.0   17.1756
  155.45    326.0   18.0555

loop_
_phase_label
_phase_scale
_phase_igsize
  pbso4   1.4146(38)   0.0

loop_
_pd_background_2theta
_pd_background_intensity
   11.0   204.08117310851338
   15.0   193.54599453303575
   20.0   192.53638097127742
   30.0   188.34868653923004
   50.0   202.47090838424748
   70.0   198.31784893822447
   90.0    190.0223007587299
  110.0    220.7178073728698
  130.0    184.3145018103162
  153.0    221.2537407202634

loop_
_pd_proc_2theta
_pd_proc_intensity_plus_net
_pd_proc_intensity_minus_net
_pd_proc_intensity_bkg_calc
_pd_proc_intensity
_pd_proc_intensity_sigma
_pd_proc_excluded
   10.138      7263.24      7263.24   206.71    220.00   14.83   False
   10.188      7215.79      7215.79   206.58    214.00   14.63   False
   10.238      7169.07      7169.07   206.45    219.00   14.80   False
   10.288      7123.07      7123.07   206.32    224.00   14.97   False
   10.338      7077.77      7077.77   206.19    198.00   14.07   False
   10.388      7033.16      7033.16   206.06    229.00   15.13   False
   10.438      6989.22      6989.22   205.92    224.00   14.97   False
   10.488      6945.95      6945.95   205.79    216.00   14.70   False
   10.538      6903.33      6903.33   205.66    202.00   14.21   False
   10.588      6861.36      6861.36   205.53    229.00   15.13   False
   10.638      6820.02      6820.02   205.40    202.00   14.21   False
   10.688      6779.30      6779.30   205.27    215.00   14.66   False
   10.738      6739.19      6739.19   205.13    215.00   14.66   False
   10.788      6699.68      6699.68   205.00    196.00   14.00   False
   10.838      6660.76      6660.76   204.87    235.00   15.33   False
   10.888      6622.43      6622.43   204.74    207.00   14.39   False
   10.938      6584.66      6584.66   204.61    205.00   14.32   False
   10.988      6547.46      6547.46   204.48    238.00   15.43   False
   11.038      6510.81      6510.81   204.34    202.00   14.21   False
   11.088      6474.70      6474.70   204.21    213.00   14.59   False
   11.138      6439.13      6439.13   204.08    226.00   15.03   False
   11.188      6404.09      6404.09   203.95    198.00   14.07   False
   11.238      6369.56      6369.56   203.82    222.00   14.90   False
   11.288      6335.55      6335.55   203.69    186.00   13.64   False
   11.338      6302.04      6302.04   203.55    216.00   14.70   False
   11.388      6269.02      6269.02   203.42    218.00   14.76   False
   11.438      6236.50      6236.50   203.29    225.00   15.00   False
   11.488      6204.45      6204.45   203.16    200.00   14.14   False
   11.538      6172.88      6172.88   203.03    196.00   14.00   False
   11.588      6141.77      6141.77   202.90    224.00   14.97   False
   11.638      6111.12      6111.12   202.76    199.00   14.11   False
   11.688      6080.93      6080.93   202.63    204.00   14.28   False
   11.738      6051.18      6051.18   202.50    189.00   13.75   False
   11.788      6021.88      6021.88   202.37    211.00   14.53   False
   11.838      5993.00      5993.00   202.24    190.00   13.78   False
   11.888      5964.56      5964.56   202.11    184.00   13.56   False
   11.938      5936.53      5936.53   201.97    204.00   14.28   False
   11.988      5908.92      5908.92   201.84    204.00   14.28   False
   12.038      5881.73      5881.73   201.71    219.00   14.80   False
   12.088      5854.93      5854.93   201.58    207.00   14.39   False
   12.138      5828.54      5828.54   201.45    227.00   15.07   False
   12.188      5802.54      5802.54   201.32    211.00   10.27   False
   12.238      5776.93      5776.93   201.18    193.00    9.82   False
   12.288      5751.70      5751.70   201.05    206.00   10.15   False
   12.338      5726.85      5726.85   200.92    208.00   10.20   False
   12.388      5702.38      5702.38   200.79    191.00    9.77   False
   12.438      5678.27      5678.27   200.66    194.00    9.85   False
   12.488      5654.53      5654.53   200.53    185.00    9.62   False
   12.538      5631.15      5631.15   200.39    200.00   10.00   False
   12.588      5608.13      5608.13   200.26    203.00   10.07   False
   12.638      5585.45      5585.45   200.13    197.00    9.92   False
   12.688      5563.13      5563.13   200.00    203.00   10.07   False
   12.738      5541.14      5541.14   199.87    200.00   10.00   False
   12.788      5519.50      5519.50   199.74    200.00   10.00   False
   12.838      5498.19      5498.19   199.60    205.00   10.12   False
   12.888      5477.22      5477.22   199.47    208.00   10.20   False
   12.938      5456.57      5456.57   199.34    205.00   10.12   False
   12.988      5436.24      5436.24   199.21    201.00   10.03   False
   13.038      5416.24      5416.24   199.08    221.00   10.51   False
   13.088      5396.55      5396.55   198.95    218.00   10.44   False
   13.138      5377.18      5377.18   198.81    218.00   10.44   False
   13.188      5358.12      5358.12   198.68    216.00   10.39   False
   13.238      5339.37      5339.37   198.55    202.00   10.05   False
   13.288      5320.92      5320.92   198.42    206.00   10.15   False
   13.338      5302.77      5302.77   198.29    197.00    9.92   False
   13.388      5284.92      5284.92   198.16    210.00   10.25   False
   13.438      5267.37      5267.37   198.02    199.00    9.97   False
   13.488      5250.11      5250.11   197.89    219.00   10.46   False
   13.538      5233.13      5233.13   197.76    192.00    9.80   False
   13.588      5216.45      5216.45   197.63    211.00   10.27   False
   13.638      5200.05      5200.05   197.50    199.00    9.97   False
   13.688      5183.94      5183.94   197.37    196.00    9.90   False
   13.738      5168.10      5168.10   197.23    195.00    9.87   False
   13.788      5152.54      5152.54   197.10    203.00   10.07   False
   13.838      5137.26      5137.26   196.97    202.00   10.05   False
   13.888      5122.25      5122.25   196.84    200.00   10.00   False
   13.938      5107.51      5107.51   196.71    199.00    9.97   False
   13.988      5093.05      5093.05   196.57    191.00    9.77   False
   14.038      5078.85      5078.85   196.44    204.00   10.10   False
   14.088      5064.91      5064.91   196.31    191.00    9.77   False
   14.138      5051.24      5051.24   196.18    200.00   10.00   False
   14.188      5037.83      5037.83   196.05    199.00    9.97   False
   14.238      5024.68      5024.68   195.92    197.00    9.92   False
   14.288      5011.79      5011.79   195.78    202.00   10.05   False
   14.338      4999.15      4999.15   195.65    210.00   10.25   False
   14.388      4986.77      4986.77   195.52    202.00   10.05   False
   14.438      4974.65      4974.65   195.39    198.00    9.95   False
   14.488      4962.78      4962.78   195.26    191.00    9.77   False
   14.538      4951.16      4951.16   195.13    194.00    9.85   False
   14.588      4939.79      4939.79   194.99    198.00    9.95   False
   14.638      4928.66      4928.66   194.86    194.00    9.85   False
   14.688      4917.79      4917.79   194.73    193.00    9.82   False
   14.738      4907.16      4907.16   194.60    212.00   10.30   False
   14.788      4896.78      4896.78   194.47    214.00   10.34   False
   14.838      4886.65      4886.65   194.34    197.00    9.92   False
   14.888      4876.76      4876.76   194.20    195.00    9.87   False
   14.938      4867.11      4867.11   194.07    205.00   10.12   False
   14.988      4857.71      4857.71   193.94    209.00   10.22   False
   15.038      4848.55      4848.55   193.81    203.00   10.07   False
   15.088      4839.63      4839.63   193.68    197.00    9.92   False
   15.138      4830.95      4830.95   193.55    191.00    9.77   False
   15.188      4822.52      4822.52   193.54    192.00    9.80   False
   15.238      4814.32      4814.32   193.53    215.00   10.37   False
   15.288      4806.37      4806.37   193.52    194.00    9.85   False
   15.338      4798.65      4798.65   193.51    189.00    9.72   False
   15.388      4791.18      4791.18   193.50    188.00    9.70   False
   15.438      4783.95      4783.95   193.49    202.00   10.05   False
   15.488      4776.96      4776.96   193.48    201.00   10.03   False
   15.538      4770.21      4770.21   193.47    198.00    9.95   False
   15.588      4763.70      4763.70   193.46    208.00   10.20   False
   15.638      4757.43      4757.43   193.45    197.00    9.92   False
   15.688      4751.41      4751.41   193.43    187.00    9.67   False
   15.738      4745.63      4745.63   193.42    187.00    9.67   False
   15.788      4740.09      4740.09   193.41    190.00    9.75   False
   15.838      4734.79      4734.79   193.40    197.00    9.92   False
   15.888      4729.75      4729.75   193.39    200.00   10.00   False
   15.938      4724.94      4724.94   193.38    193.00    9.82   False
   15.988      4720.39      4720.39   193.37    180.00    9.49   False
   16.038      4716.08      4716.08   193.36    194.00    9.85   False
   16.088      4712.03      4712.03   193.35    206.00   10.15   False
   16.138      4708.22      4708.22   193.34    195.00    9.87   False
   16.188      4704.67      4704.67   193.33    193.00    9.82   False
   16.238      4701.38      4701.38   193.32    205.00   10.12   False
   16.288      4698.34      4698.34   193.31    194.00    9.85   False
   16.338      4695.56      4695.56   193.30    196.00    9.90   False
   16.388      4693.04      4693.04   193.29    194.00    9.85   False
   16.438      4690.78      4690.78   193.28    199.00    9.97   False
   16.488      4688.80      4688.80   193.27    207.00   10.17   False
   16.538      4687.08      4687.08   193.26    188.00    9.70   False
   16.588      4685.63      4685.63   193.25    203.00   10.07   False
   16.638      4684.46      4684.46   193.24    188.00    9.70   False
   16.688      4683.56      4683.56   193.23    180.00    9.49   False
   16.738      4682.95      4682.95   193.22    198.00    9.95   False
   16.788      4682.62      4682.62   193.21    200.00   10.00   False
   16.838      4682.59      4682.59   193.20    201.00   10.03   False
   16.888      4682.85      4682.85   193.19    210.00   10.25   False
   16.938      4683.41      4683.41   193.18    206.00   10.15   False
   16.988      4684.27      4684.27   193.17    189.00    9.72   False
   17.038      4685.44      4685.44   193.16    194.00    9.85   False
   17.088      4686.93      4686.93   193.15    187.00    9.67   False
   17.138      4688.74      4688.74   193.14    195.00    9.87   False
   17.188      4690.88      4690.88   193.13    201.00   10.03   False
   17.238      4693.36      4693.36   193.12    197.00    9.92   False
   17.288      4696.18      4696.18   193.11    206.00   10.15   False
   17.338      4699.35      4699.35   193.10    208.00   10.20   False
   17.388      4702.88      4702.88   193.09    199.00    9.97   False
   17.438      4706.77      4706.77   193.08    192.00    9.80   False
   17.488      4711.05      4711.05   193.07    193.00    9.82   False
   17.538      4715.72      4715.72   193.06    204.00   10.10   False
   17.588      4720.79      4720.79   193.05    201.00   10.03   False
   17.638      4726.27      4726.27   193.04    200.00   10.00   False
   17.688      4732.18      4732.18   193.03    177.00    9.41   False
   17.738      4738.53      4738.53   193.02    193.00    9.82   False
   17.788      4745.34      4745.34   193.01    199.00    9.97   False
   17.838      4752.63      4752.63   193.00    201.00   10.03   False
   17.888      4760.41      4760.41   192.99    194.00    9.85   False
   17.938      4768.70      4768.70   192.98    184.00    9.59   False
   17.988      4777.52      4777.52   192.97    192.00    9.80   False
   18.038      4786.91      4786.91   192.96    199.00    9.97   False
   18.088      4796.88      4796.88   192.95    190.00    9.75   False
   18.138      4807.46      4807.46   192.94    183.00    9.57   False
   18.188      4818.69      4818.69   192.93    189.00    7.94   False
   18.238      4830.59      4830.59   192.92    196.00    8.08   False
   18.288      4843.22      4843.22   192.91    196.00    8.08   False
   18.338      4856.60      4856.60   192.90    198.00    8.12   False
   18.388      4870.79      4870.79   192.89    210.00    8.37   False
   18.438      4885.84      4885.84   192.88    212.00    8.41   False
   18.488      4901.80      4901.80   192.87    219.00    8.54   False
   18.538      4918.74      4918.74   192.86    198.00    8.12   False
   18.588      4936.73      4936.73   192.85    195.00    8.06   False
   18.638      4955.85      4955.85   192.84    198.00    8.12   False
   18.688      4976.19      4976.19   192.83    191.00    7.98   False
   18.738      4997.86      4997.86   192.82    193.00    8.02   False
   18.788      5020.98      5020.98   192.81    197.00    8.10   False
   18.838      5045.67      5045.67   192.80    194.00    8.04   False
   18.888      5072.08      5072.08   192.79    187.00    7.90   False
   18.938      5100.41      5100.41   192.78    209.00    8.35   False
   18.988      5130.83      5130.83   192.77    187.00    7.90   False
   19.038      5163.60      5163.60   192.76    198.00    8.12   False
   19.088      5198.98      5198.98   192.75    206.00    8.29   False
   19.138      5237.30      5237.30   192.74    197.00    8.10   False
   19.188      5278.92      5278.92   192.73    191.00    7.98   False
   19.238      5324.32      5324.32   192.72    200.00    8.16   False
   19.288      5374.04      5374.04   192.71    207.00    8.31   False
   19.338      5428.80      5428.80   192.70    205.00    8.27   False
   19.388      5489.56      5489.56   192.69    198.00    8.12   False
   19.438      5557.69      5557.69   192.68    196.00    8.08   False
   19.488      5635.33      5635.33   192.67    209.00    8.35   False
   19.538      5725.93      5725.93   192.66    211.00    8.39   False
   19.588      5835.31      5835.31   192.65    203.00    8.23   False
   19.638      5973.22      5973.22   192.64    200.00    8.16   False
   19.688      6155.75      6155.75   192.63    192.00    8.00   False
   19.738      6408.40      6408.40   192.62    208.00    8.33   False
   19.788      6769.82      6769.82   192.61    213.00    8.43   False
   19.838      7295.05      7295.05   192.60    221.00    8.58   False
   19.888      8057.25      8057.25   192.59    216.00    8.49   False
   19.938      9145.74      9145.74   192.58    226.00    8.68   False
   19.988     10658.38     10658.38   192.57    228.00    8.72   False
   20.038     12686.96     12686.96   192.56    228.00    8.72   False
   20.088     15295.80     15295.80   192.55    215.00    8.47   False
   20.138     18496.16     18496.16   192.54    224.00    8.64   False
   20.188     22221.14     22221.14   192.52    226.00    8.68   False
   20.238     26306.35     26306.35   192.49    213.00    8.43   False
   20.288     30479.95     30479.95   192.47    239.00    8.93   False
   20.338     34364.51     34364.51   192.45    250.00    9.13   False
   20.388     37499.02     37499.02   192.43    247.00    9.07   False
   20.438     39407.23     39407.23   192.41    240.00    8.94   False
   20.488     39736.41     39736.41   192.39    231.00    8.78   False
   20.538     38414.72     38414.72   192.37    236.00    8.87   False
   20.588     35693.45     35693.45   192.35    223.00    8.62   False
   20.638     32027.41     32027.41   192.33    231.00    8.78   False
   20.688     27908.76     27908.76   192.31    226.00    8.68   False
   20.738     23761.99     23761.99   192.29    214.00    8.45   False
   20.788     19904.67     19904.67   192.26    208.00    8.33   False
   20.838     16540.90     16540.90   192.24    214.00    8.45   False
   20.888     13769.21     13769.21   192.22    196.00    8.08   False
   20.938     11600.45     11600.45   192.20    204.00    8.25   False
   20.988      9982.46      9982.46   192.18    199.00    8.14   False
   21.038      8826.95      8826.95   192.16    186.00    7.87   False
   21.088      8033.36      8033.36   192.14    192.00    8.00   False
   21.138      7506.27      7506.27   192.12    199.00    8.14   False
   21.188      7165.40      7165.40   192.10    200.00    8.16   False
   21.238      6949.12      6949.12   192.08    184.00    7.83   False
   21.288      6813.58      6813.58   192.05    184.00    7.83   False
   21.338      6729.54      6729.54   192.03    189.00    7.94   False
   21.388      6678.48      6678.48   192.01    182.00    7.79   False
   21.438      6649.18      6649.18   191.99    184.00    7.83   False
   21.488      6635.02      6635.02   191.97    185.00    7.85   False
   21.538      6632.10      6632.10   191.95    195.00    8.06   False
   21.588      6638.11      6638.11   191.93    190.00    7.96   False
   21.638      6651.59      6651.59   191.91    194.00    8.04   False
   21.688      6671.57      6671.57   191.89    185.00    7.85   False
   21.738      6697.39      6697.39   191.87    183.00    7.81   False
   21.788      6728.52      6728.52   191.85    193.00    8.02   False
   21.838      6764.59      6764.59   191.82    194.00    8.04   False
   21.888      6805.29      6805.29   191.80    193.00    8.02   False
   21.938      6850.39      6850.39   191.78    188.00    7.92   False
   21.988      6899.72      6899.72   191.76    191.00    7.98   False
   22.038      6953.14      6953.14   191.74    189.00    7.94   False
   22.088      7010.58      7010.58   191.72    188.00    7.92   False
   22.138      7071.97      7071.97   191.70    201.00    8.19   False
   22.188      7137.30      7137.30   191.68    195.00    8.06   False
   22.238      7206.58      7206.58   191.66    205.00    8.27   False
   22.288      7279.83      7279.83   191.64    200.00    8.16   False
   22.338      7357.11      7357.11   191.62    200.00    8.16   False
   22.388      7438.51      7438.51   191.59    192.00    8.00   False
   22.438      7524.12      7524.12   191.57    197.00    8.10   False
   22.488      7614.07      7614.07   191.55    204.00    8.25   False
   22.538      7708.50      7708.50   191.53    207.00    8.31   False
   22.588      7807.57      7807.57   191.51    192.00    8.00   False
   22.638      7911.47      7911.47   191.49    201.00    8.19   False
   22.688      8020.41      8020.41   191.47    190.00    7.96   False
   22.738      8134.62      8134.62   191.45    195.00    8.06   False
   22.788      8254.35      8254.35   191.43    194.00    8.04   False
   22.838      8379.88      8379.88   191.41    182.00    7.79   False
   22.888      8511.53      8511.53   191.38    189.00    7.94   False
   22.938      8649.63      8649.63   191.36    196.00    8.08   False
   22.988      8794.56      8794.56   191.34    196.00    8.08   False
   23.038      8946.71      8946.71   191.32    200.00    8.16   False
   23.088      9106.53      9106.53   191.30    190.00    7.96   False
   23.138      9274.50      9274.50   191.28    183.00    7.81   False
   23.188      9451.16      9451.16   191.26    199.00    8.14   False
   23.238      9637.08      9637.08   191.24    187.00    7.90   False
   23.288      9832.90      9832.90   191.22    196.00    8.08   False
   23.338     10039.31     10039.31   191.20    191.00    7.98   False
   23.388     10257.07     10257.07   191.18    191.00    7.98   False
   23.438     10487.03     10487.03   191.15    195.00    8.06   False
   23.488     10730.10     10730.10   191.13    194.00    8.04   False
   23.538     10987.30     10987.30   191.11    192.00    8.00   False
   23.588     11259.76     11259.76   191.09    182.00    7.79   False
   23.638     11548.72     11548.72   191.07    188.00    7.92   False
   23.688     11855.56     11855.56   191.05    203.00    8.23   False
   23.738     12181.79     12181.79   191.03    187.00    7.90   False
   23.788     12529.13     12529.13   191.01    192.00    8.00   False
   23.838     12899.47     12899.47   190.99    206.00    8.29   False
   23.888     13294.93     13294.93   190.97    201.00    8.19   False
   23.938     13717.88     13717.88   190.95    184.00    7.83   False
   23.988     14170.99     14170.99   190.92    192.00    8.00   False
   24.038     14657.27     14657.27   190.90    205.00    8.27   False
   24.088     15180.12     15180.12   190.88    196.00    8.08   False
   24.138     15743.37     15743.37   190.86    193.00    8.02   False
   24.188     16351.40     16351.40   190.84    194.00    6.96   False
   24.238     17009.20     17009.20   190.82    195.00    6.98   False
   24.288     17722.48     17722.48   190.80    194.00    6.96   False
   24.338     18497.77     18497.77   190.78    201.00    7.09   False
   24.388     19342.64     19342.64   190.76    193.00    6.95   False
   24.438     20265.82     20265.82   190.74    176.00    6.63   False
   24.488     21277.47     21277.47   190.71    187.00    6.84   False
   24.538     22389.46     22389.46   190.69    188.00    6.86   False
   24.588     23615.73     23615.73   190.67    196.00    7.00   False
   24.638     24972.77     24972.77   190.65    192.00    6.93   False
   24.688     26480.34     26480.34   190.63    185.00    6.80   False
   24.738     28162.46     28162.46   190.61    195.00    6.98   False
   24.788     30049.24     30049.24   190.59    198.00    7.04   False
   24.838     32180.10     32180.10   190.57    205.00    7.16   False
   24.888     34609.92     34609.92   190.55    200.00    7.07   False
   24.938     37420.67     37420.67   190.53    208.00    7.21   False
   24.988     40742.77     40742.77   190.51    195.00    6.98   False
   25.038     44792.78     44792.78   190.48    187.00    6.84   False
   25.088     49935.28     49935.28   190.46    193.00    6.95   False
   25.138     56777.57     56777.57   190.44    197.00    7.02   False
   25.188     66300.81     66300.81   190.42    202.00    7.11   False
   25.238     80020.75     80020.75   190.40    193.00    6.95   False
   25.288    100150.72    100150.72   190.38    196.00    7.00   False
   25.338    129712.95    129712.95   190.36    202.00    7.11   False
   25.388    172517.65    172517.65   190.34    201.00    7.09   False
   25.438    232917.19    232917.19   190.32    197.00    7.02   False
   25.488    315261.22    315261.22   190.30    204.00    7.14   False
   25.538    423037.98    423037.98   190.28    208.00    7.21   False
   25.588    557779.39    557779.39   190.25    206.00    7.18   False
   25.638    717896.78    717896.78   190.23    212.00    7.28   False
   25.688    897649.41    897649.41   190.21    207.00    7.19   False
   25.738   1086409.36   1086409.36   190.19    207.00    7.19   False
   25.788   1268408.39   1268408.39   190.17    212.00    7.28   False
   25.838   1423567.58   1423567.58   190.15    216.00    7.35   False
   25.888   1530743.25   1530743.25   190.13    218.00    7.38   False
   25.938   1573912.65   1573912.65   190.11    221.00    7.43   False
   25.988   1547917.90   1547917.90   190.09    218.00    7.38   False
   26.038   1458889.91   1458889.91   190.07    207.00    7.19   False
   26.088   1320366.41   1320366.41   190.04    203.00    7.12   False
   26.138   1149687.37   1149687.37   190.02    204.00    7.14   False
   26.188    965299.75    965299.75   190.00    202.00    7.11   False
   26.238    783823.27    783823.27   189.98    206.00    7.18   False
   26.288    617723.91    617723.91   189.96    202.00    7.11   False
   26.338    474534.10    474534.10   189.94    202.00    7.11   False
   26.388    357305.48    357305.48   189.92    181.00    6.73   False
   26.438    265631.32    265631.32   189.90    193.00    6.95   False
   26.488    196818.82    196818.82   189.88    205.00    7.16   False
   26.538    146986.14    146986.14   189.86    198.00    7.04   False
   26.588    111949.17    111949.17   189.84    196.00    7.00   False
   26.638     87831.49     87831.49   189.81    197.00    7.02   False
   26.688     71397.23     71397.23   189.79    195.00    6.98   False
   26.738     60157.43     60157.43   189.77    201.00    7.09   False
   26.788     52324.28     52324.28   189.75    205.00    7.16   False
   26.838     46686.57     46686.57   189.73    195.00    6.98   False
   26.888     42463.24     42463.24   189.71    196.00    7.00   False
   26.938     39169.79     39169.79   189.69    196.00    7.00   False
   26.988     36513.08     36513.08   189.67    205.00    7.16   False
   27.038     34316.89     34316.89   189.65    198.00    7.04   False
   27.088     32473.51     32473.51   189.63    200.00    7.07   False
   27.138     30914.36     30914.36   189.60    199.00    7.05   False
   27.188     29593.27     29593.27   189.58    180.00    6.71   False
   27.238     28477.21     28477.21   189.56    187.00    6.84   False
   27.288     27541.44     27541.44   189.54    193.00    6.95   False
   27.338     26766.89     26766.89   189.52    197.00    7.02   False
   27.388     26138.66     26138.66   189.50    197.00    7.02   False
   27.438     25645.22     25645.22   189.48    196.00    7.00   False
   27.488     25277.85     25277.85   189.46    194.00    6.96   False
   27.538     25030.32     25030.32   189.44    197.00    7.02   False
   27.588     24898.66     24898.66   189.42    204.00    7.14   False
   27.638     24881.04     24881.04   189.40    201.00    7.09   False
   27.688     24977.73     24977.73   189.37    187.00    6.84   False
   27.738     25191.15     25191.15   189.35    191.00    6.91   False
   27.788     25526.00     25526.00   189.33    205.00    7.16   False
   27.838     25989.57     25989.57   189.31    200.00    7.07   False
   27.888     26592.20     26592.20   189.29    198.00    7.04   False
   27.938     27348.20     27348.20   189.27    200.00    7.07   False
   27.988     28277.56     28277.56   189.25    204.00    7.14   False
   28.038     29409.23     29409.23   189.23    196.00    7.00   False
   28.088     30787.60     30787.60   189.21    195.00    6.98   False
   28.138     32484.80     32484.80   189.19    194.00    6.96   False
   28.188     34622.85     34622.85   189.17    200.00    7.07   False
   28.238     37411.51     37411.51   189.14    198.00    7.04   False
   28.288     41207.61     41207.61   189.12    201.00    7.09   False
   28.338     46599.98     46599.98   189.10    208.00    7.21   False
   28.388     54516.28     54516.28   189.08    205.00    7.16   False
   28.438     66334.67     66334.67   189.06    211.00    7.26   False
   28.488     83962.99     83962.99   189.04    211.00    7.26   False
   28.538    109827.62    109827.62   189.02    220.00    7.42   False
   28.588    146703.02    146703.02   189.00    220.00    7.42   False
   28.638    197325.78    197325.78   188.98    212.00    7.28   False
   28.688    263783.11    263783.11   188.96    208.00    7.21   False
   28.738    346739.92    346739.92   188.93    214.00    7.31   False
   28.788    444644.33    444644.33   188.91    226.00    7.52   False
   28.838    553078.96    553078.96   188.89    235.00    7.66   False
   28.888    664378.67    664378.67   188.87    233.00    7.63   False
   28.938    767595.62    767595.62   188.85    237.00    7.70   False
   28.988    849140.62    849140.62   188.83    242.00    7.78   False
   29.038    895081.95    895081.95   188.81    242.00    7.78   False
   29.088    895851.55    895851.55   188.79    245.00    7.83   False
   29.138    851077.83    851077.83   188.77    239.00    7.73   False
   29.188    769901.72    769901.72   188.75    226.00    7.52   False
   29.238    666368.33    666368.33   188.73    232.00    7.62   False
   29.288    554429.25    554429.25   188.70    238.00    7.71   False
   29.338    445357.35    445357.35   188.68    226.00    7.52   False
   29.388    347020.50    347020.50   188.66    218.00    7.38   False
   29.438    263931.76    263931.76   188.64    218.00    7.38   False
   29.488    197661.64    197661.64   188.62    214.00    7.31   False
   29.538    147513.24    147513.24   188.60    205.00    7.16   False
   29.588    111342.19    111342.19   188.58    200.00    7.07   False
   29.638     86353.86     86353.86   188.56    193.00    6.95   False
   29.688     69735.59     69735.59   188.54    195.00    6.98   False
   29.738     59058.57     59058.57   188.52    196.00    7.00   False
   29.788     52461.58     52461.58   188.50    195.00    6.98   False
   29.838     48678.25     48678.25   188.47    207.00    7.19   False
   29.888     46981.91     46981.91   188.45    215.00    7.33   False
   29.938     47108.08     47108.08   188.43    207.00    7.19   False
   29.988     49188.23     49188.23   188.41    218.00    7.38   False
   30.038     53699.54     53699.54   188.39    218.00    7.38   False
   30.088     61412.86     61412.86   188.37    220.00    7.42   False
   30.138     73307.35     73307.35   188.35    220.00    7.42   False
   30.188     90420.53     90420.53   188.38    229.00    6.77   False
   30.238    113617.84    113617.84   188.42    236.00    6.87   False
   30.288    143294.98    143294.98   188.45    254.00    7.13   False
   30.338    179059.30    179059.30   188.49    264.00    7.27   False
   30.388    219454.65    219454.65   188.53    280.00    7.48   False
   30.438    261782.34    261782.34   188.56    289.00    7.60   False
   30.488    302048.38    302048.38   188.60    289.00    7.60   False
   30.538    335134.17    335134.17   188.63    303.00    7.78   False
   30.588    355535.60    355535.60   188.67    302.00    7.77   False
   30.638    359065.21    359065.21   188.70    297.00    7.71   False
   30.688    344890.21    344890.21   188.74    281.00    7.50   False
   30.738    316050.45    316050.45   188.77    278.00    7.46   False
   30.788    277855.27    277855.27   188.81    280.00    7.48   False
   30.838    235819.62    235819.62   188.84    265.00    7.28   False
   30.888    194499.48    194499.48   188.88    258.00    7.18   False
   30.938    157141.10    157141.10   188.91    243.00    6.97   False
   30.988    125686.40    125686.40   188.95    240.00    6.93   False
   31.038    100935.79    100935.79   188.98    232.00    6.81   False
   31.088     82826.52     82826.52   189.02    231.00    6.80   False
   31.138     70787.03     70787.03   189.05    233.00    6.83   False
   31.188     64103.97     64103.97   189.09    246.00    7.01   False
   31.238     62240.26     62240.26   189.13    248.00    7.04   False
   31.288     65062.49     65062.49   189.16    249.00    7.06   False
   31.338     72955.00     72955.00   189.20    256.00    7.16   False
   31.388     86806.69     86806.69   189.23    272.00    7.38   False
   31.438    107857.67    107857.67   189.27    289.00    7.60   False
   31.488    137400.42    137400.42   189.30    311.00    7.89   False
   31.538    176352.89    176352.89   189.34    340.00    8.25   False
   31.588    224759.83    224759.83   189.37    363.00    8.52   False
   31.638    281313.51    281313.51   189.41    393.00    8.87   False
   31.688    342988.14    342988.14   189.44    440.00    9.38   False
   31.738    404844.27    404844.27   189.48    474.00    9.74   False
   31.788    460067.25    460067.25   189.51    482.00    9.82   False
   31.838    500549.76    500549.76   189.55    492.00    9.92   False
   31.888    518709.54    518709.54   189.58    508.00   10.08   False
   31.938    510594.03    510594.03   189.62    494.00    9.94   False
   31.988    478109.32    478109.32   189.65    475.00    9.75   False
   32.038    427973.32    427973.32   189.69    439.00    9.37   False
   32.088    368548.20    368548.20   189.73    413.00    9.09   False
   32.138    307362.16    307362.16   189.76    368.00    8.58   False
   32.188    250114.26    250114.26   189.80    331.00    8.14   False
   32.238    200502.86    200502.86   189.83    299.00    7.73   False
   32.288    160371.17    160371.17   189.87    286.00    7.56   False
   32.338    130034.71    130034.71   189.90    262.00    7.24   False
   32.388    108742.50    108742.50   189.94    241.00    6.94   False
   32.438     95191.20     95191.20   189.97    238.00    6.90   False
   32.488     88002.85     88002.85   190.01    252.00    7.10   False
   32.538     86112.38     86112.38   190.04    267.00    7.31   False
   32.588     89059.95     89059.95   190.08    276.00    7.43   False
   32.638     97215.47     97215.47   190.11    278.00    7.46   False
   32.688    111961.56    111961.56   190.15    300.00    7.75   False
   32.738    135827.19    135827.19   190.18    325.00    8.06   False
   32.788    172510.03    172510.03   190.22    336.00    8.20   False
   32.838    226675.53    226675.53   190.26    359.00    8.47   False
   32.888    303406.28    303406.28   190.29    405.00    9.00   False
   32.938    407224.56    407224.56   190.33    458.00    9.57   False
   32.988    540732.44    540732.44   190.36    501.00   10.01   False
   33.038    703071.98    703071.98   190.40    564.00   10.62   False
   33.088    888517.55    888517.55   190.43    640.00   11.31   False
   33.138   1085480.67   1085480.67   190.47    719.00   11.99   False
   33.188   1276084.06   1276084.06   190.50    783.00   12.51   False
   33.238   1436683.18   1436683.18   190.54    837.00   12.94   False
   33.288   1540869.88   1540869.88   190.57    851.00   13.05   False
   33.338   1567186.46   1567186.46   190.61    866.00   13.16   False
   33.388   1509420.12   1509420.12   190.64    828.00   12.87   False
   33.438   1380417.13   1380417.13   190.68    763.00   12.35   False
   33.488   1205001.26   1205001.26   190.71    697.00   11.81   False
   33.538   1009635.43   1009635.43   190.75    634.00   11.26   False
   33.588    816320.09    816320.09   190.78    541.00   10.40   False
   33.638    640728.19    640728.19   190.82    465.00    9.64   False
   33.688    492210.62    492210.62   190.86    391.00    8.84   False
   33.738    374575.16    374575.16   190.89    351.00    8.38   False
   33.788    287405.22    287405.22   190.93    301.00    7.76   False
   33.838    227722.34    227722.34   190.96    284.00    7.54   False
   33.888    191673.75    191673.75   191.00    260.00    7.21   False
   33.938    175934.30    175934.30   191.03    248.00    7.04   False
   33.988    178625.28    178625.28   191.07    257.00    7.17   False
   34.038    199673.65    199673.65   191.10    242.00    6.96   False
   34.088    240613.75    240613.75   191.14    246.00    7.01   False
   34.138    303875.18    303875.18   191.17    263.00    7.25   False
   34.188    391646.16    391646.16   191.21    271.00    7.36   False
   34.238    504476.82    504476.82   191.24    281.00    7.50   False
   34.288    639870.21    639870.21   191.28    302.00    7.77   False
   34.338    791129.62    791129.62   191.31    309.00    7.86   False
   34.388    946640.73    946640.73   191.35    335.00    8.19   False
   34.438   1089713.76   1089713.76   191.38    342.00    8.27   False
   34.488   1199603.60   1199603.60   191.42    345.00    8.31   False
   34.538   1255478.66   1255478.66   191.46    356.00    8.44   False
   34.588   1244330.59   1244330.59   191.49    351.00    8.38   False
   34.638   1168144.40   1168144.40   191.53    341.00    8.26   False
   34.688   1042820.63   1042820.63   191.56    334.00    8.17   False
   34.738    890031.90    890031.90   191.60    321.00    8.01   False
   34.788    729921.13    729921.13   191.63    286.00    7.56   False
   34.838    577931.39    577931.39   191.67    268.00    7.32   False
   34.888    444184.82    444184.82   191.70    256.00    7.16   False
   34.938    333818.39    333818.39   191.74    238.00    6.90   False
   34.988    247803.82    247803.82   191.77    229.00    6.77   False
   35.038    184114.17    184114.17   191.81    218.00    6.60   False
   35.088    139016.53    139016.53   191.84    223.00    6.68   False
   35.138    108224.33    108224.33   191.88    216.00    6.57   False
   35.188     87722.97     87722.97   191.91    203.00    6.37   False
   35.238     74217.43     74217.43   191.95    203.00    6.37   False
   35.288     65261.81     65261.81   191.99    194.00    6.23   False
   35.338     59183.92     59183.92   192.02    205.00    6.40   False
   35.388     54916.38     54916.38   192.06    196.00    6.26   False
   35.438     51814.92     51814.92   192.09    193.00    6.21   False
   35.488     49506.32     49506.32   192.13    206.00    6.42   False
   35.538     47779.28     47779.28   192.16    201.00    6.34   False
   35.588     46514.45     46514.45   192.20    201.00    6.34   False
   35.638     45643.48     45643.48   192.23    201.00    6.34   False
   35.688     45126.78     45126.78   192.27    200.00    6.32   False
   35.738     44942.18     44942.18   192.30    194.00    6.23   False
   35.788     45079.53     45079.53   192.34    196.00    6.26   False
   35.838     45538.33     45538.33   192.37    203.00    6.37   False
   35.888     46327.01     46327.01   192.41    195.00    6.25   False
   35.938     47463.28     47463.28   192.44    196.00    6.26   False
   35.988     48975.71     48975.71   192.48    211.00    6.50   False
   36.038     50907.21     50907.21   192.51    216.00    6.57   False
   36.088     53322.29     53322.29   192.55    207.00    6.43   False
   36.138     56321.73     56321.73   192.59    215.00    6.56   False
   36.188     60071.35     60071.35   192.62    221.00    6.65   False
   36.238     64855.72     64855.72   192.66    237.00    6.28   False
   36.288     71171.68     71171.68   192.69    248.00    6.43   False
   36.338     79878.68     79878.68   192.73    261.00    6.60   False
   36.388     92416.27     92416.27   192.76    279.00    6.82   False
   36.438    111079.33    111079.33   192.80    319.00    7.29   False
   36.488    139300.57    139300.57   192.83    337.00    7.49   False
   36.538    181833.33    181833.33   192.87    364.00    7.79   False
   36.588    244669.67    244669.67   192.90    423.00    8.40   False
   36.638    334505.88    334505.88   192.94    489.00    9.03   False
   36.688    457619.60    457619.60   192.97    557.00    9.63   False
   36.738    618173.58    618173.58   193.01    630.00   10.25   False
   36.788    816179.00    816179.00   193.04    729.00   11.02   False
   36.838   1045527.75   1045527.75   193.08    822.00   11.70   False
   36.888   1292497.82   1292497.82   193.11    943.00   12.54   False
   36.938   1534962.57   1534962.57   193.15   1059.00   13.29   False
   36.988   1742740.14   1742740.14   193.19   1196.00   14.12   False
   37.038   1881048.87   1881048.87   193.22   1235.00   14.35   False
   37.088   1920408.45   1920408.45   193.26   1220.00   14.26   False
   37.138   1850918.41   1850918.41   193.29   1209.00   14.20   False
   37.188   1688444.28   1688444.28   193.33   1128.00   13.71   False
   37.238   1465431.86   1465431.86   193.36   1001.00   12.92   False
   37.288   1216632.36   1216632.36   193.40    864.00   12.00   False
   37.338    970675.12    970675.12   193.43    729.00   11.02   False
   37.388    747607.08    747607.08   193.47    601.00   10.01   False
   37.438    558984.65    558984.65   193.50    496.00    9.09   False
   37.488    408947.39    408947.39   193.54    418.00    8.35   False
   37.538    295942.36    295942.36   193.57    355.00    7.69   False
   37.588    214817.39    214817.39   193.61    313.00    7.22   False
   37.638    158848.60    158848.60   193.64    263.00    6.62   False
   37.688    121320.79    121320.79   193.68    246.00    6.40   False
   37.738     96487.45     96487.45   193.72    226.00    6.14   False
   37.788     79951.65     79951.65   193.75    214.00    5.97   False
   37.838     68636.76     68636.76   193.79    222.00    6.08   False
   37.888     60543.26     60543.26   193.82    222.00    6.08   False
   37.938     54446.89     54446.89   193.86    211.00    5.93   False
   37.988     49629.69     49629.69   193.89    211.00    5.93   False
   38.038     45679.42     45679.42   193.93    202.00    5.80   False
   38.088     42357.38     42357.38   193.96    198.00    5.74   False
   38.138     39519.44     39519.44   194.00    192.00    5.66   False
   38.188     37072.28     37072.28   194.03    193.00    5.67   False
   38.238     34950.60     34950.60   194.07    196.00    5.72   False
   38.288     33105.55     33105.55   194.10    201.00    5.79   False
   38.338     31498.89     31498.89   194.14    203.00    5.82   False
   38.388     30099.89     30099.89   194.17    203.00    5.82   False
   38.438     28883.48     28883.48   194.21    201.00    5.79   False
   38.488     27829.07     27829.07   194.24    198.00    5.74   False
   38.538     26919.75     26919.75   194.28    196.00    5.72   False
   38.588     26141.64     26141.64   194.32    206.00    5.86   False
   38.638     25483.43     25483.43   194.35    210.00    5.92   False
   38.688     24935.98     24935.98   194.39    197.00    5.73   False
   38.738     24492.08     24492.08   194.42    204.00    5.83   False
   38.788     24146.21     24146.21   194.46    200.00    5.77   False
   38.838     23894.38     23894.38   194.49    205.00    5.85   False
   38.888     23734.07     23734.07   194.53    196.00    5.72   False
   38.938     23664.10     23664.10   194.56    195.00    5.70   False
   38.988     23684.69     23684.69   194.60    205.00    5.85   False
   39.038     23797.45     23797.45   194.63    204.00    5.83   False
   39.088     24005.47     24005.47   194.67    200.00    5.77   False
   39.138     24313.46     24313.46   194.70    203.00    5.82   False
   39.188     24727.92     24727.92   194.74    208.00    5.89   False
   39.238     25257.46     25257.46   194.77    207.00    5.87   False
   39.288     25913.15     25913.15   194.81    202.00    5.80   False
   39.338     26709.16     26709.16   194.84    203.00    5.82   False
   39.388     27663.76     27663.76   194.88    198.00    5.74   False
   39.438     28801.06     28801.06   194.92    204.00    5.83   False
   39.488     30154.46     30154.46   194.95    210.00    5.92   False
   39.538     31773.51     31773.51   194.99    216.00    6.00   False
   39.588     33737.15     33737.15   195.02    210.00    5.92   False
   39.638     36178.64     36178.64   195.06    229.00    6.18   False
   39.688     39329.15     39329.15   195.09    239.00    6.31   False
   39.738     43587.83     43587.83   195.13    247.00    6.42   False
   39.788     49623.10     49623.10   195.16    278.00    6.81   False
   39.838     58499.41     58499.41   195.20    302.00    7.09   False
   39.888     71803.96     71803.96   195.23    324.00    7.35   False
   39.938     91719.96     91719.96   195.27    371.00    7.86   False
   39.988    120966.67    120966.67   195.30    420.00    8.37   False
   40.038    162519.09    162519.09   195.34    465.00    8.80   False
   40.088    219051.63    219051.63   195.37    538.00    9.47   False
   40.138    292128.41    292128.41   195.41    630.00   10.25   False
   40.188    381266.46    381266.46   195.45    739.00   11.10   False
   40.238    483067.29    483067.29   195.48    851.00   11.91   False
   40.288    590584.27    590584.27   195.52    976.00   12.75   False
   40.338    693021.49    693021.49   195.55   1076.00   13.39   False
   40.388    776107.34    776107.34   195.59   1161.00   13.91   False
   40.438    824406.87    824406.87   195.62   1222.00   14.27   False
   40.488    826906.19    826906.19   195.66   1227.00   14.30   False
   40.538    783192.89    783192.89   195.69   1187.00   14.07   False
   40.588    703840.15    703840.15   195.73   1096.00   13.52   False
   40.638    604501.81    604501.81   195.76    964.00   12.68   False
   40.688    500025.35    500025.35   195.80    833.00   11.78   False
   40.738    401895.82    401895.82   195.83    708.00   10.86   False
   40.788    317870.46    317870.46   195.87    587.00    9.89   False
   40.838    252417.02    252417.02   195.90    512.00    9.24   False
   40.888    207523.47    207523.47   195.94    436.00    8.52   False
   40.938    183734.98    183734.98   195.97    391.00    8.07   False
   40.988    181177.50    181177.50   196.01    384.00    8.00   False
   41.038    200263.25    200263.25   196.05    370.00    7.85   False
   41.088    241840.95    241840.95   196.08    391.00    8.07   False
   41.138    306715.20    306715.20   196.12    419.00    8.36   False
   41.188    394651.78    394651.78   196.15    448.00    8.64   False
   41.238    503144.38    503144.38   196.19    490.00    9.04   False
   41.288    626267.46    626267.46   196.22    567.00    9.72   False
   41.338    753843.96    753843.96   196.26    626.00   10.21   False
   41.388    871097.80    871097.80   196.29    687.00   10.70   False
   41.438    959513.37    959513.37   196.33    735.00   11.07   False
   41.488   1000824.02   1000824.02   196.36    780.00   11.40   False
   41.538    984796.98    984796.98   196.40    782.00   11.42   False
   41.588    915249.50    915249.50   196.43    745.00   11.14   False
   41.638    807468.79    807468.79   196.47    721.00   10.96   False
   41.688    680259.99    680259.99   196.50    662.00   10.50   False
   41.738    550171.29    550171.29   196.54    595.00    9.96   False
   41.788    429404.47    429404.47   196.57    527.00    9.37   False
   41.838    325499.25    325499.25   196.61    446.00    8.62   False
   41.888    241733.80    241733.80   196.65    393.00    8.09   False
   41.938    177995.98    177995.98   196.68    335.00    7.47   False
   41.988    131933.73    131933.73   196.72    301.00    7.08   False
   42.038    100120.90    100120.90   196.75    276.00    6.78   False
   42.088     79007.17     79007.17   196.79    251.00    5.99   False
   42.138     65535.54     65535.54   196.82    242.00    5.88   False
   42.188     57434.55     57434.55   196.86    229.00    5.72   False
   42.238     53269.04     53269.04   196.89    209.00    5.46   False
   42.288     52349.44     52349.44   196.93    215.00    5.54   False
   42.338     54573.27     54573.27   196.96    218.00    5.58   False
   42.388     60232.31     60232.31   197.00    214.00    5.53   False
   42.438     69789.51     69789.51   197.03    209.00    5.46   False
   42.488     83623.67     83623.67   197.07    208.00    5.45   False
   42.538    101755.51    101755.51   197.10    212.00    5.50   False
   42.588    123589.93    123589.93   197.14    210.00    5.48   False
   42.638    147714.38    147714.38   197.18    209.00    5.46   False
   42.688    171775.69    171775.69   197.21    210.00    5.48   False
   42.738    192480.52    192480.52   197.25    205.00    5.41   False
   42.788    205955.48    205955.48   197.28    209.00    5.46   False
   42.838    208896.95    208896.95   197.32    211.00    5.49   False
   42.888    200268.56    200268.56   197.35    211.00    5.49   False
   42.938    181979.60    181979.60   197.39    216.00    5.55   False
   42.988    157709.03    157709.03   197.42    205.00    5.41   False
   43.038    131239.53    131239.53   197.46    204.00    5.40   False
   43.088    105567.52    105567.52   197.49    202.00    5.37   False
   43.138     82695.70     82695.70   197.53    201.00    5.36   False
   43.188     63686.60     63686.60   197.56    200.00    5.35   False
   43.238     48812.66     48812.66   197.60    207.00    5.44   False
   43.288     37770.78     37770.78   197.63    205.00    5.41   False
   43.338     29925.06     29925.06   197.67    202.00    5.37   False
   43.388     24526.70     24526.70   197.70    209.00    5.46   False
   43.438     20872.34     20872.34   197.74    202.00    5.37   False
   43.488     18388.91     18388.91   197.78    203.00    5.39   False
   43.538     16656.84     16656.84   197.81    206.00    5.42   False
   43.588     15394.27     15394.27   197.85    206.00    5.42   False
   43.638     14424.64     14424.64   197.88    200.00    5.35   False
   43.688     13642.97     13642.97   197.92    194.00    5.26   False
   43.738     12988.74     12988.74   197.95    199.00    5.33   False
   43.788     12427.06     12427.06   197.99    204.00    5.40   False
   43.838     11937.15     11937.15   198.02    205.00    5.41   False
   43.888     11505.70     11505.70   198.06    210.00    5.48   False
   43.938     11123.52     11123.52   198.09    207.00    5.44   False
   43.988     10783.76     10783.76   198.13    205.00    5.41   False
   44.038     10481.04     10481.04   198.16    210.00    5.48   False
   44.088     10211.02     10211.02   198.20    204.00    5.40   False
   44.138      9970.12      9970.12   198.23    203.00    5.39   False
   44.188      9755.37      9755.37   198.27    202.00    5.37   False
   44.238      9564.29      9564.29   198.30    205.00    5.41   False
   44.288      9394.81      9394.81   198.34    201.00    5.36   False
   44.338      9245.20      9245.20   198.38    201.00    5.36   False
   44.388      9114.01      9114.01   198.41    207.00    5.44   False
   44.438      9000.04      9000.04   198.45    197.00    5.30   False
   44.488      8902.30      8902.30   198.48    198.00    5.32   False
   44.538      8820.01      8820.01   198.52    203.00    5.39   False
   44.588      8752.53      8752.53   198.55    209.00    5.46   False
   44.638      8699.40      8699.40   198.59    209.00    5.46   False
   44.688      8660.29      8660.29   198.62    208.00    5.45   False
   44.738      8635.01      8635.01   198.66    204.00    5.40   False
   44.788      8623.49      8623.49   198.69    209.00    5.46   False
   44.838      8625.83      8625.83   198.73    199.00    5.33   False
   44.888      8642.22      8642.22   198.76    204.00    5.40   False
   44.938      8673.01      8673.01   198.80    206.00    5.42   False
   44.988      8718.70      8718.70   198.83    201.00    5.36   False
   45.038      8779.95      8779.95   198.87    205.00    5.41   False
   45.088      8857.57      8857.57   198.91    202.00    5.37   False
   45.138      8952.61      8952.61   198.94    204.00    5.40   False
   45.188      9066.31      9066.31   198.98    198.00    5.32   False
   45.238      9200.18      9200.18   199.01    198.00    5.32   False
   45.288      9356.01      9356.01   199.05    213.00    5.52   False
   45.338      9535.97      9535.97   199.08    210.00    5.48   False
   45.388      9742.61      9742.61   199.12    212.00    5.50   False
   45.438      9978.99      9978.99   199.15    214.00    5.53   False
   45.488     10248.76     10248.76   199.19    215.00    5.54   False
   45.538     10556.28     10556.28   199.22    217.00    5.57   False
   45.588     10906.82     10906.82   199.26    210.00    5.48   False
   45.638     11306.73     11306.73   199.29    214.00    5.53   False
   45.688     11763.78     11763.78   199.33    215.00    5.54   False
   45.738     12287.59     12287.59   199.36    215.00    5.54   False
   45.788     12890.47     12890.47   199.40    215.00    5.54   False
   45.838     13588.84     13588.84   199.43    217.00    5.57   False
   45.888     14406.21     14406.21   199.47    222.00    5.63   False
   45.938     15379.01     15379.01   199.51    231.00    5.74   False
   45.988     16567.95     16567.95   199.54    247.00    5.94   False
   46.038     18078.70     18078.70   199.58    252.00    6.00   False
   46.088     20096.48     20096.48   199.61    273.00    6.25   False
   46.138     22938.43     22938.43   199.65    304.00    6.59   False
   46.188     27122.18     27122.18   199.68    332.00    6.89   False
   46.238     33438.84     33438.84   199.72    366.00    7.23   False
   46.288     43002.08     43002.08   199.75    408.00    7.63   False
   46.338     57228.05     57228.05   199.79    463.00    8.13   False
   46.388     77694.13     77694.13   199.82    532.00    8.72   False
   46.438    105840.00    105840.00   199.86    619.00    9.40   False
   46.488    142519.53    142519.53   199.89    734.00   10.24   False
   46.538    187473.48    187473.48   199.93    828.00   10.88   False
   46.588    238833.06    238833.06   199.96    944.00   11.61   False
   46.638    292745.32    292745.32   200.00   1003.00   11.97   False
   46.688    343178.86    343178.86   200.03   1055.00   12.28   False
   46.738    382180.90    382180.90   200.07   1070.00   12.36   False
   46.788    401477.00    401477.00   200.11   1018.00   12.06   False
   46.838    396034.88    396034.88   200.14    944.00   11.61   False
   46.888    367247.51    367247.51   200.18    833.00   10.91   False
   46.938    322034.50    322034.50   200.21    725.00   10.18   False
   46.988    268973.84    268973.84   200.25    633.00    9.51   False
   47.038    215399.06    215399.06   200.28    507.00    8.51   False
   47.088    166462.98    166462.98   200.32    445.00    7.97   False
   47.138    125147.34    125147.34   200.35    379.00    7.36   False
   47.188     92564.53     92564.53   200.39    347.00    7.04   False
   47.238     68412.01     68412.01   200.42    316.00    6.72   False
   47.288     51515.96     51515.96   200.46    282.00    6.35   False
   47.338     40354.29     40354.29   200.49    267.00    6.18   False
   47.388     33455.15     33455.15   200.53    269.00    6.20   False
   47.438     29623.02     29623.02   200.56    281.00    6.34   False
   47.488     28004.38     28004.38   200.60    288.00    6.41   False
   47.538     28040.41     28040.41   200.64    300.00    6.55   False
   47.588     29362.15     29362.15   200.67    327.00    6.83   False
   47.638     31674.13     31674.13   200.71    346.00    7.03   False
   47.688     34655.61     34655.61   200.74    380.00    7.37   False
   47.738     37890.95     37890.95   200.78    400.00    7.56   False
   47.788     40833.08     40833.08   200.81    430.00    7.84   False
   47.838     42829.91     42829.91   200.85    453.00    8.04   False
   47.888     43289.33     43289.33   200.88    459.00    8.10   False
   47.938     41971.40     41971.40   200.92    451.00    8.03   False
   47.988     39141.87     39141.87   200.95    427.00    7.81   False
   48.038     35390.75     35390.75   200.99    402.00    7.58   False
   48.088     31336.77     31336.77   201.02    375.00    7.32   False
   48.138     27466.23     27466.23   201.06    344.00    7.01   False
   48.188     24098.27     24098.27   201.09    309.00    6.64   False
   48.238     21396.96     21396.96   201.13    277.00    6.29   False
   48.288     19398.91     19398.91   201.16    265.00    5.76   False
   48.338     18050.51     18050.51   201.20    246.00    5.55   False
   48.388     17249.02     17249.02   201.24    246.00    5.55   False
   48.438     16878.64     16878.64   201.27    230.00    5.36   False
   48.488     16835.63     16835.63   201.31    223.00    5.28   False
   48.538     17040.89     17040.89   201.34    227.00    5.33   False
   48.588     17442.75     17442.75   201.38    225.00    5.30   False
   48.638     18014.20     18014.20   201.41    217.00    5.21   False
   48.688     18748.57     18748.57   201.45    217.00    5.21   False
   48.738     19656.71     19656.71   201.48    223.00    5.28   False
   48.788     20768.26     20768.26   201.52    223.00    5.28   False
   48.838     22139.70     22139.70   201.55    220.00    5.24   False
   48.888     23873.22     23873.22   201.59    223.00    5.28   False
   48.938     26152.23     26152.23   201.62    226.00    5.32   False
   48.988     29299.33     29299.33   201.66    248.00    5.57   False
   49.038     33859.11     33859.11   201.69    258.00    5.68   False
   49.088     40697.27     40697.27   201.73    274.00    5.85   False
   49.138     51087.84     51087.84   201.76    297.00    6.09   False
   49.188     66736.03     66736.03   201.80    324.00    6.36   False
   49.238     89665.46     89665.46   201.84    355.00    6.66   False
   49.288    121905.39    121905.39   201.87    393.00    7.01   False
   49.338    164959.86    164959.86   201.91    458.00    7.57   False
   49.388    219121.15    219121.15   201.94    528.00    8.12   False
   49.438    282764.40    282764.40   201.98    589.00    8.58   False
   49.488    351762.09    351762.09   202.01    688.00    9.27   False
   49.538    419093.75    419093.75   202.05    781.00    9.88   False
   49.588    474872.53    474872.53   202.08    840.00   10.25   False
   49.638    507802.18    507802.18   202.12    876.00   10.46   False
   49.688    509441.23    509441.23   202.15    874.00   10.45   False
   49.738    479341.23    479341.23   202.19    832.00   10.20   False
   49.788    425424.81    425424.81   202.22    765.00    9.78   False
   49.838    359093.68    359093.68   202.26    682.00    9.23   False
   49.888    290639.50    290639.50   202.29    613.00    8.75   False
   49.938    227527.97    227527.97   202.33    524.00    8.09   False
   49.988    174322.23    174322.23   202.36    455.00    7.54   False
   50.038    133097.62    133097.62   202.40    408.00    7.14   False
   50.088    104054.83    104054.83   202.44    384.00    6.93   False
   50.138     86235.88     86235.88   202.47    366.00    6.76   False
   50.188     78183.40     78183.40   202.46    375.00    6.85   False
   50.238     78383.27     78383.27   202.45    392.00    7.00   False
   50.288     85421.90     85421.90   202.44    426.00    7.30   False
   50.338     97899.98     97899.98   202.43    470.00    7.66   False
   50.388    114212.40    114212.40   202.42    519.00    8.05   False
   50.438    132302.96    132302.96   202.41    588.00    8.57   False
   50.488    149473.15    149473.15   202.40    639.00    8.94   False
   50.538    162406.76    162406.76   202.39    681.00    9.23   False
   50.588    167828.93    167828.93   202.38    704.00    9.38   False
   50.638    163989.95    163989.95   202.37    693.00    9.31   False
   50.688    151794.03    151794.03   202.36    650.00    9.01   False
   50.738    134147.15    134147.15   202.35    600.00    8.66   False
   50.788    114342.95    114342.95   202.34    540.00    8.22   False
   50.838     95048.77     95048.77   202.33    478.00    7.73   False
   50.888     78058.47     78058.47   202.32    412.00    7.18   False
   50.938     64357.48     64357.48   202.30    376.00    6.86   False
   50.988     54284.34     54284.34   202.29    345.00    6.57   False
   51.038     47751.99     47751.99   202.28    330.00    6.42   False
   51.088     44498.72     44498.72   202.27    337.00    6.49   False
   51.138     44316.51     44316.51   202.26    350.00    6.61   False
   51.188     47205.58     47205.58   202.25    383.00    6.92   False
   51.238     53420.99     53420.99   202.24    426.00    7.30   False
   51.288     63397.83     63397.83   202.23    493.00    7.85   False
   51.338     77563.00     77563.00   202.22    571.00    8.45   False
   51.388     96067.31     96067.31   202.21    676.00    9.19   False
   51.438    118494.82    118494.82   202.20    803.00   10.02   False
   51.488    143609.91    143609.91   202.19    920.00   10.72   False
   51.538    169175.93    169175.93   202.18   1071.00   11.57   False
   51.588    191898.07    191898.07   202.17   1183.00   12.16   False
   51.638    207787.92    207787.92   202.16   1247.00   12.48   False
   51.688    213533.77    213533.77   202.15   1255.00   12.53   False
   51.738    208576.89    208576.89   202.14   1251.00   12.51   False
   51.788    195859.93    195859.93   202.13   1183.00   12.16   False
   51.838    180395.57    180395.57   202.12   1068.00   11.55   False
   51.888    167556.41    167556.41   202.11    945.00   10.87   False
   51.938    162390.01    162390.01   202.10    861.00   10.37   False
   51.988    169531.35    169531.35   202.09    811.00   10.07   False
   52.038    193087.05    193087.05   202.08    813.00   10.08   False
   52.088    236245.31    236245.31   202.07    872.00   10.44   False
   52.138    300578.90    300578.90   202.06    969.00   11.01   False
   52.188    385134.09    385134.09   202.05   1120.00   11.83   False
   52.238    485493.50    485493.50   202.03   1309.00   12.79   False
   52.288    592982.66    592982.66   202.02   1527.00   13.82   False
   52.338    694146.17    694146.17   202.01   1706.00   14.60   False
   52.388    771220.16    771220.16   202.00   1856.00   15.23   False
   52.438    805978.23    805978.23   201.99   1888.00   15.36   False
   52.488    788337.34    788337.34   201.98   1837.00   15.15   False
   52.538    723189.60    723189.60   201.97   1713.00   14.63   False
   52.588    626926.43    626926.43   201.96   1500.00   13.69   False
   52.638    518169.67    518169.67   201.95   1289.00   12.69   False
   52.688    411936.72    411936.72   201.94   1103.00   11.74   False
   52.738    318263.75    318263.75   201.93    904.00   10.63   False
   52.788    242583.67    242583.67   201.92    749.00    9.68   False
   52.838    186567.03    186567.03   201.91    627.00    8.85   False
   52.888    149190.02    149190.02   201.90    568.00    8.43   False
   52.938    127856.55    127856.55   201.89    551.00    8.30   False
   52.988    119326.87    119326.87   201.88    560.00    8.37   False
   53.038    120288.06    120288.06   201.87    586.00    8.56   False
   53.088    127558.94    127558.94   201.86    634.00    8.90   False
   53.138    138030.56    138030.56   201.85    691.00    9.29   False
   53.188    148500.77    148500.77   201.84    751.00    9.69   False
   53.238    155700.23    155700.23   201.83    799.00    9.99   False
   53.288    156967.54    156967.54   201.82    792.00    9.95   False
   53.338    151446.42    151446.42   201.81    820.00   10.12   False
   53.388    140478.64    140478.64   201.80    774.00    9.84   False
   53.438    126551.44    126551.44   201.79    736.00    9.59   False
   53.488    112021.19    112021.19   201.78    680.00    9.22   False
   53.538     98543.27     98543.27   201.76    627.00    8.85   False
   53.588     87022.50     87022.50   201.75    562.00    8.38   False
   53.638     77772.66     77772.66   201.74    514.00    8.02   False
   53.688     70758.92     70758.92   201.73    459.00    7.57   False
   53.738     65793.86     65793.86   201.72    424.00    7.28   False
   53.788     62623.69     62623.69   201.71    362.00    6.73   False
   53.838     60974.09     60974.09   201.70    333.00    6.45   False
   53.888     60598.02     60598.02   201.69    318.00    6.30   False
   53.938     61306.60     61306.60   201.68    300.00    6.12   False
   53.988     62974.35     62974.35   201.67    287.00    5.99   False
   54.038     65531.78     65531.78   201.66    265.00    5.76   False
   54.088     68958.41     68958.41   201.65    266.00    5.77   False
   54.138     73283.21     73283.21   201.64    262.00    5.72   False
   54.188     78595.95     78595.95   201.63    263.00    5.41   False
   54.238     85076.00     85076.00   201.62    255.00    5.32   False
   54.288     93053.41     93053.41   201.61    270.00    5.48   False
   54.338    103128.86    103128.86   201.60    278.00    5.56   False
   54.388    116389.74    116389.74   201.59    289.00    5.67   False
   54.438    134760.62    134760.62   201.58    317.00    5.93   False
   54.488    161499.41    161499.41   201.57    343.00    6.17   False
   54.538    201777.14    201777.14   201.56    400.00    6.67   False
   54.588    263151.64    263151.64   201.55    468.00    7.21   False
   54.638    355592.16    355592.16   201.54    561.00    7.90   False
   54.688    490616.98    490616.98   201.53    695.00    8.79   False
   54.738    679188.22    679188.22   201.52    873.00    9.85   False
   54.788    928345.63    928345.63   201.51   1100.00   11.06   False
   54.838   1237063.70   1237063.70   201.49   1372.00   12.35   False
   54.888   1592157.15   1592157.15   201.48   1660.00   13.58   False
   54.938   1964903.44   1964903.44   201.47   1954.00   14.73   False
   54.988   2308999.13   2308999.13   201.46   2224.00   15.72   False
   55.038   2563107.59   2563107.59   201.45   2400.00   16.33   False
   55.088   2666594.49   2666594.49   201.44   2459.00   16.53   False
   55.138   2590186.66   2590186.66   201.43   2435.00   16.45   False
   55.188   2356136.53   2356136.53   201.42   2245.00   15.79   False
   55.238   2023054.40   2023054.40   201.41   1986.00   14.85   False
   55.288   1654342.78   1654342.78   201.40   1671.00   13.63   False
   55.338   1299474.40   1299474.40   201.39   1358.00   12.28   False
   55.388    990072.85    990072.85   201.38   1086.00   10.98   False
   55.438    741783.99    741783.99   201.37    868.00    9.82   False
   55.488    557805.54    557805.54   201.36    682.00    8.71   False
   55.538    433289.83    433289.83   201.35    578.00    8.01   False
   55.588    359959.47    359959.47   201.34    521.00    7.61   False
   55.638    329997.73    329997.73   201.33    512.00    7.54   False
   55.688    338497.54    338497.54   201.32    537.00    7.72   False
   55.738    384217.43    384217.43   201.31    600.00    8.16   False
   55.788    468778.76    468778.76   201.30    704.00    8.84   False
   55.838    594658.70    594658.70   201.29    855.00    9.75   False
   55.888    762435.73    762435.73   201.28   1032.00   10.71   False
   55.938    967748.86    967748.86   201.27   1232.00   11.70   False
   55.988   1198343.87   1198343.87   201.26   1466.00   12.76   False
   56.038   1431770.30   1431770.30   201.25   1693.00   13.72   False
   56.088   1635789.77   1635789.77   201.24   1866.00   14.40   False
   56.138   1775434.19   1775434.19   201.22   1966.00   14.78   False
   56.188   1825613.16   1825613.16   201.21   2024.00   15.00   False
   56.238   1778144.70   1778144.70   201.20   2016.00   14.97   False
   56.288   1640535.86   1640535.86   201.19   1846.00   14.32   False
   56.338   1435322.98   1435322.98   201.18   1667.00   13.61   False
   56.388   1195823.66   1195823.66   201.17   1429.00   12.60   False
   56.438    954843.87    954843.87   201.16   1179.00   11.45   False
   56.488    736065.23    736065.23   201.15    950.00   10.27   False
   56.538    552404.70    552404.70   201.14    763.00    9.21   False
   56.588    407912.33    407912.33   201.13    599.00    8.16   False
   56.638    300439.23    300439.23   201.12    484.00    7.33   False
   56.688    224244.10    224244.10   201.11    404.00    6.70   False
   56.738    172230.32    172230.32   201.10    351.00    6.25   False
   56.788    137571.28    137571.28   201.09    304.00    5.81   False
   56.838    114625.20    114625.20   201.08    284.00    5.62   False
   56.888     99229.83     99229.83   201.07    273.00    5.51   False
   56.938     88585.58     88585.58   201.06    259.00    5.36   False
   56.988     80949.26     80949.26   201.05    251.00    5.28   False
   57.038     75302.70     75302.70   201.04    251.00    5.28   False
   57.088     71083.48     71083.48   201.03    252.00    5.29   False
   57.138     68004.05     68004.05   201.02    245.00    5.22   False
   57.188     65953.19     65953.19   201.01    259.00    5.36   False
   57.238     64965.52     64965.52   201.00    250.00    5.27   False
   57.288     65248.94     65248.94   200.99    253.00    5.30   False
   57.338     67265.69     67265.69   200.98    256.00    5.33   False
   57.388     71859.86     71859.86   200.97    264.00    5.42   False
   57.438     80405.87     80405.87   200.96    285.00    5.63   False
   57.488     94917.35     94917.35   200.94    301.00    5.78   False
   57.538    118015.37    118015.37   200.93    346.00    6.20   False
   57.588    152636.09    152636.09   200.92    390.00    6.58   False
   57.638    201395.14    201395.14   200.91    458.00    7.13   False
   57.688    265634.82    265634.82   200.90    528.00    7.66   False
   57.738    344317.84    344317.84   200.89    624.00    8.33   False
   57.788    432988.72    432988.72   200.88    733.00    9.02   False
   57.838    522932.44    522932.44   200.87    829.00    9.60   False
   57.888    600749.95    600749.95   200.86    916.00   10.09   False
   57.938    649761.81    649761.81   200.85    988.00   10.48   False
   57.988    656023.17    656023.17   200.84    994.00   10.51   False
   58.038    617168.10    617168.10   200.83    929.00   10.16   False
   58.088    544287.55    544287.55   200.82    843.00    9.68   False
   58.138    454215.53    454215.53   200.81    742.00    9.08   False
   58.188    361835.46    361835.46   200.80    638.00    8.42   False
   58.238    277397.89    277397.89   200.79    527.00    7.65   False
   58.288    206605.79    206605.79   200.78    434.00    6.94   False
   58.338    151394.21    151394.21   200.77    377.00    6.47   False
   58.388    110942.83    110942.83   200.76    320.00    5.96   False
   58.438     82811.56     82811.56   200.75    282.00    5.60   False
   58.488     63986.38     63986.38   200.74    273.00    5.51   False
   58.538     51633.19     51633.19   200.73    256.00    5.33   False
   58.588     43489.35     43489.35   200.72    243.00    5.20   False
   58.638     37953.69     37953.69   200.71    240.00    5.16   False
   58.688     33996.14     33996.14   200.70    240.00    5.16   False
   58.738     31001.67     31001.67   200.69    230.00    5.06   False
   58.788     28621.27     28621.27   200.67    220.00    4.94   False
   58.838     26660.80     26660.80   200.66    230.00    5.06   False
   58.888     25010.18     25010.18   200.65    227.00    5.02   False
   58.938     23603.11     23603.11   200.64    224.00    4.99   False
   58.988     22396.32     22396.32   200.63    219.00    4.93   False
   59.038     21359.35     21359.35   200.62    227.00    5.02   False
   59.088     20469.65     20469.65   200.61    227.00    5.02   False
   59.138     19710.24     19710.24   200.60    224.00    4.99   False
   59.188     19068.36     19068.36   200.59    222.00    4.97   False
   59.238     18534.86     18534.86   200.58    223.00    4.98   False
   59.288     18103.76     18103.76   200.57    217.00    4.91   False
   59.338     17772.38     17772.38   200.56    213.00    4.86   False
   59.388     17541.87     17541.87   200.55    216.00    4.90   False
   59.438     17418.88     17418.88   200.54    219.00    4.93   False
   59.488     17419.27     17419.27   200.53    219.00    4.93   False
   59.538     17575.35     17575.35   200.52    218.00    4.92   False
   59.588     17948.81     17948.81   200.51    220.00    4.94   False
   59.638     18651.03     18651.03   200.50    220.00    4.94   False
   59.688     19870.10     19870.10   200.49    220.00    4.94   False
   59.738     21899.15     21899.15   200.48    223.00    4.98   False
   59.788     25152.26     25152.26   200.47    233.00    5.09   False
   59.838     30147.11     30147.11   200.46    237.00    5.13   False
   59.888     37432.03     37432.03   200.45    249.00    5.26   False
   59.938     47446.55     47446.55   200.44    258.00    5.35   False
   59.988     60328.54     60328.54   200.43    261.00    5.39   False
   60.038     75704.72     75704.72   200.42    283.00    5.61   False
   60.088     92501.22     92501.22   200.40    304.00    5.81   False
   60.138    108792.07    108792.07   200.39    324.00    5.69   False
   60.188    121785.80    121785.80   200.38    347.00    5.89   False
   60.238    128381.88    128381.88   200.37    353.00    5.94   False
   60.288    126696.60    126696.60   200.36    359.00    5.99   False
   60.338    117444.64    117444.64   200.35    363.00    6.02   False
   60.388    103386.17    103386.17   200.34    352.00    5.93   False
   60.438     87617.23     87617.23   200.33    341.00    5.84   False
   60.488     72561.33     72561.33   200.32    330.00    5.74   False
   60.538     59845.86     59845.86   200.31    308.00    5.55   False
   60.588     50482.92     50482.92   200.30    291.00    5.39   False
   60.638     45079.57     45079.57   200.29    271.00    5.21   False
   60.688     44051.26     44051.26   200.28    254.00    5.04   False
   60.738     47806.98     47806.98   200.27    245.00    4.95   False
   60.788     56818.17     56818.17   200.26    245.00    4.95   False
   60.838     71504.89     71504.89   200.25    239.00    4.89   False
   60.888     91947.24     91947.24   200.24    228.00    4.77   False
   60.938    117499.86    117499.86   200.23    217.00    4.66   False
   60.988    146406.12    146406.12   200.22    217.00    4.66   False
   61.038    175467.01    175467.01   200.21    218.00    4.67   False
   61.088    199877.76    199877.76   200.20    223.00    4.72   False
   61.138    213856.92    213856.92   200.19    207.00    4.55   False
   61.188    213059.28    213059.28   200.18    218.00    4.67   False
   61.238    197583.78    197583.78   200.17    222.00    4.71   False
   61.288    171901.22    171901.22   200.16    215.00    4.64   False
   61.338    141789.98    141789.98   200.15    210.00    4.58   False
   61.388    111961.07    111961.07   200.13    216.00    4.65   False
   61.438     85454.60     85454.60   200.12    213.00    4.62   False
   61.488     63796.79     63796.79   200.11    212.00    4.60   False
   61.538     47315.93     47315.93   200.10    215.00    4.64   False
   61.588     35518.27     35518.27   200.09    212.00    4.60   False
   61.638     27481.56     27481.56   200.08    214.00    4.63   False
   61.688     22189.28     22189.28   200.07    211.00    4.59   False
   61.738     18747.94     18747.94   200.06    214.00    4.63   False
   61.788     16480.54     16480.54   200.05    217.00    4.66   False
   61.838     14928.92     14928.92   200.04    205.00    4.53   False
   61.888     13809.46     13809.46   200.03    207.00    4.55   False
   61.938     12957.87     12957.87   200.02    213.00    4.62   False
   61.988     12282.56     12282.56   200.01    208.00    4.56   False
   62.038     11732.53     11732.53   200.00    211.00    4.59   False
   62.088     11278.17     11278.17   199.99    205.00    4.53   False
   62.138     10900.91     10900.91   199.98    214.00    4.63   False
   62.188     10588.07     10588.07   199.97    213.00    4.62   False
   62.238     10330.37     10330.37   199.96    212.00    4.60   False
   62.288     10120.78     10120.78   199.95    212.00    4.60   False
   62.338      9953.84      9953.84   199.94    213.00    4.62   False
   62.388      9825.30      9825.30   199.93    207.00    4.55   False
   62.438      9731.89      9731.89   199.92    203.00    4.51   False
   62.488      9671.14      9671.14   199.91    211.00    4.59   False
   62.538      9641.28      9641.28   199.90    211.00    4.59   False
   62.588      9641.10      9641.10   199.89    214.00    4.63   False
   62.638      9669.93      9669.93   199.88    214.00    4.63   False
   62.688      9727.61      9727.61   199.86    207.00    4.55   False
   62.738      9814.44      9814.44   199.85    203.00    4.51   False
   62.788      9931.17      9931.17   199.84    212.00    4.60   False
   62.838     10079.07     10079.07   199.83    212.00    4.60   False
   62.888     10259.91     10259.91   199.82    214.00    4.63   False
   62.938     10476.04     10476.04   199.81    213.00    4.62   False
   62.988     10730.52     10730.52   199.80    202.00    4.49   False
   63.038     11027.24     11027.24   199.79    210.00    4.58   False
   63.088     11371.21     11371.21   199.78    211.00    4.59   False
   63.138     11768.97     11768.97   199.77    211.00    4.59   False
   63.188     12229.09     12229.09   199.76    214.00    4.63   False
   63.238     12762.90     12762.90   199.75    221.00    4.70   False
   63.288     13385.20     13385.20   199.74    217.00    4.66   False
   63.338     14114.64     14114.64   199.73    212.00    4.60   False
   63.388     14973.63     14973.63   199.72    214.00    4.63   False
   63.438     15987.43     15987.43   199.71    219.00    4.68   False
   63.488     17182.72     17182.72   199.70    223.00    4.72   False
   63.538     18586.42     18586.42   199.69    225.00    4.74   False
   63.588     20226.56     20226.56   199.68    227.00    4.76   False
   63.638     22137.65     22137.65   199.67    235.00    4.85   False
   63.688     24375.93     24375.93   199.66    240.00    4.90   False
   63.738     27057.47     27057.47   199.65    243.00    4.93   False
   63.788     30439.24     30439.24   199.64    252.00    5.02   False
   63.838     35045.55     35045.55   199.63    249.00    4.99   False
   63.888     41809.72     41809.72   199.62    249.00    4.99   False
   63.938     52208.01     52208.01   199.61    255.00    5.05   False
   63.988     68352.43     68352.43   199.59    262.00    5.12   False
   64.038     92938.57     92938.57   199.58    282.00    5.31   False
   64.088    128907.93    128907.93   199.57    308.00    5.55   False
   64.138    178737.82    178737.82   199.56    351.00    5.92   False
   64.188    243406.32    243406.32   199.55    398.00    6.31   False
   64.238    321221.82    321221.82   199.54    470.00    6.86   False
   64.288    406717.60    406717.60   199.53    525.00    7.25   False
   64.338    489699.34    489699.34   199.52    596.00    7.72   False
   64.388    555001.39    555001.39   199.51    646.00    8.04   False
   64.438    585556.15    585556.15   199.50    681.00    8.25   False
   64.488    571281.23    571281.23   199.49    665.00    8.15   False
   64.538    516916.23    516916.23   199.48    615.00    7.84   False
   64.588    438186.73    438186.73   199.47    563.00    7.50   False
   64.638    351792.63    351792.63   199.46    484.00    6.96   False
   64.688    269990.47    269990.47   199.45    421.00    6.49   False
   64.738    199973.74    199973.74   199.44    364.00    6.03   False
   64.788    144708.09    144708.09   199.43    317.00    5.63   False
   64.838    104015.92    104015.92   199.42    289.00    5.38   False
   64.888     75772.60     75772.60   199.41    261.00    5.11   False
   64.938     57049.20     57049.20   199.40    245.00    4.95   False
   64.988     44977.24     44977.24   199.39    233.00    4.83   False
   65.038     37226.40     37226.40   199.38    228.00    4.77   False
   65.088     32139.60     32139.60   199.37    219.00    4.68   False
   65.138     28654.82     28654.82   199.36    219.00    4.68   False
   65.188     26144.20     26144.20   199.35    217.00    4.66   False
   65.238     24256.58     24256.58   199.34    216.00    4.65   False
   65.288     22800.11     22800.11   199.32    221.00    4.70   False
   65.338     21668.27     21668.27   199.31    215.00    4.64   False
   65.388     20798.88     20798.88   199.30    215.00    4.64   False
   65.438     20153.35     20153.35   199.29    210.00    4.58   False
   65.488     19706.84     19706.84   199.28    212.00    4.60   False
   65.538     19443.81     19443.81   199.27    212.00    4.60   False
   65.588     19356.06     19356.06   199.26    204.00    4.52   False
   65.638     19442.02     19442.02   199.25    209.00    4.57   False
   65.688     19707.13     19707.13   199.24    206.00    4.54   False
   65.738     20165.52     20165.52   199.23    216.00    4.65   False
   65.788     20844.22     20844.22   199.22    207.00    4.55   False
   65.838     21792.61     21792.61   199.21    214.00    4.63   False
   65.888     23101.47     23101.47   199.20    207.00    4.55   False
   65.938     24938.41     24938.41   199.19    209.00    4.57   False
   65.988     27606.22     27606.22   199.18    218.00    4.67   False
   66.038     31625.91     31625.91   199.17    215.00    4.64   False
   66.088     37831.12     37831.12   199.16    222.00    4.71   False
   66.138     47436.09     47436.09   199.15    226.00    4.75   False
   66.188     62011.17     62011.17   199.14    230.00    4.80   False
   66.238     83289.17     83289.17   199.13    239.00    4.89   False
   66.288    112753.58    112753.58   199.12    249.00    4.99   False
   66.338    151031.78    151031.78   199.11    263.00    5.13   False
   66.388    197189.96    197189.96   199.10    275.00    5.24   False
   66.438    248027.07    248027.07   199.09    292.00    5.40   False
   66.488    297443.14    297443.14   199.08    317.00    5.63   False
   66.538    336402.70    336402.70   199.07    323.00    5.68   False
   66.588    355192.24    355192.24   199.06    341.00    5.84   False
   66.638    348576.83    348576.83   199.04    350.00    5.92   False
   66.688    319121.12    319121.12   199.03    330.00    5.74   False
   66.738    274868.09    274868.09   199.02    320.00    5.66   False
   66.788    225007.13    225007.13   199.01    307.00    5.54   False
   66.838    177007.06    177007.06   199.00    284.00    5.33   False
   66.888    135578.90    135578.90   198.99    275.00    5.24   False
   66.938    102844.20    102844.20   198.98    265.00    5.15   False
   66.988     78986.82     78986.82   198.97    269.00    5.19   False
   67.038     63005.43     63005.43   198.96    275.00    5.24   False
   67.088     53399.93     53399.93   198.95    292.00    5.40   False
   67.138     48681.61     48681.61   198.94    311.00    5.58   False
   67.188     47658.44     47658.44   198.93    338.00    5.81   False
   67.238     49518.74     49518.74   198.92    387.00    6.22   False
   67.288     53773.16     53773.16   198.91    413.00    6.43   False
   67.338     60111.45     60111.45   198.90    463.00    6.80   False
   67.388     68238.70     68238.70   198.89    510.00    7.14   False
   67.438     77820.34     77820.34   198.88    534.00    7.31   False
   67.488     88601.21     88601.21   198.87    559.00    7.48   False
   67.538    100414.74    100414.74   198.86    539.00    7.34   False
   67.588    112853.05    112853.05   198.85    533.00    7.30   False
   67.638    124958.12    124958.12   198.84    500.00    7.07   False
   67.688    135502.42    135502.42   198.83    471.00    6.86   False
   67.738    144271.32    144271.32   198.82    455.00    6.75   False
   67.788    153557.11    153557.11   198.81    410.00    6.40   False
   67.838    167947.99    167947.99   198.80    373.00    6.11   False
   67.888    192600.39    192600.39   198.79    342.00    5.85   False
   67.938    231723.04    231723.04   198.77    307.00    5.54   False
   67.988    287551.95    287551.95   198.76    288.00    5.37   False
   68.038    359317.40    359317.40   198.75    286.00    5.35   False
   68.088    442119.74    442119.74   198.74    281.00    5.30   False
   68.138    526340.22    526340.22   198.73    292.00    5.40   False
   68.188    598900.73    598900.73   198.72    291.00    5.39   False
   68.238    646667.56    646667.56   198.71    312.00    5.59   False
   68.288    660286.29    660286.29   198.70    326.00    5.71   False
   68.338    636640.61    636640.61   198.69    336.00    5.80   False
   68.388    579139.78    579139.78   198.68    346.00    5.88   False
   68.438    497510.45    497510.45   198.67    341.00    5.84   False
   68.488    405707.96    405707.96   198.66    327.00    5.72   False
   68.538    316726.57    316726.57   198.65    305.00    5.52   False
   68.588    239015.76    239015.76   198.64    277.00    5.26   False
   68.638    176318.19    176318.19   198.63    267.00    5.17   False
   68.688    128925.07    128925.07   198.62    249.00    4.99   False
   68.738     95017.14     95017.14   198.61    229.00    4.79   False
   68.788     71799.10     71799.10   198.60    221.00    4.70   False
   68.838     56354.74     56354.74   198.59    220.00    4.69   False
   68.888     46172.99     46172.99   198.58    217.00    4.66   False
   68.938     39362.30     39362.30   198.57    211.00    4.59   False
   68.988     34639.87     34639.87   198.56    204.00    4.52   False
   69.038     31205.85     31205.85   198.55    203.00    4.51   False
   69.088     28591.54     28591.54   198.54    220.00    4.69   False
   69.138     26531.55     26531.55   198.53    217.00    4.66   False
   69.188     24875.34     24875.34   198.52    217.00    4.66   False
   69.238     23533.99     23533.99   198.50    214.00    4.63   False
   69.288     22451.41     22451.41   198.49    205.00    4.53   False
   69.338     21589.90     21589.90   198.48    205.00    4.53   False
   69.388     20923.19     20923.19   198.47    211.00    4.59   False
   69.438     20433.07     20433.07   198.46    206.00    4.54   False
   69.488     20107.79     20107.79   198.45    208.00    4.56   False
   69.538     19941.23     19941.23   198.44    201.00    4.48   False
   69.588     19932.74     19932.74   198.43    208.00    4.56   False
   69.638     20087.50     20087.50   198.42    214.00    4.63   False
   69.688     20418.01     20418.01   198.41    212.00    4.60   False
   69.738     20947.56     20947.56   198.40    206.00    4.54   False
   69.788     21718.18     21718.18   198.39    216.00    4.65   False
   69.838     22806.94     22806.94   198.38    219.00    4.68   False
   69.888     24356.77     24356.77   198.37    215.00    4.64   False
   69.938     26627.53     26627.53   198.36    217.00    4.66   False
   69.988     30068.65     30068.65   198.35    211.00    4.59   False
   70.038     35399.80     35399.80   198.34    214.00    4.63   False
   70.088     43661.48     43661.48   198.33    215.00    4.64   False
   70.138     56172.04     56172.04   198.32    224.00    4.73   False
   70.188     74324.50     74324.50   198.30    217.00    4.66   False
   70.238     99192.98     99192.98   198.28    215.00    4.64   False
   70.288    130992.00    130992.00   198.26    218.00    4.67   False
   70.338    168489.60    168489.60   198.23    218.00    4.67   False
   70.388    208441.01    208441.01   198.21    228.00    4.77   False
   70.438    245100.63    245100.63   198.19    227.00    4.76   False
   70.488    270530.42    270530.42   198.17    228.00    4.77   False
   70.538    277657.32    277657.32   198.15    225.00    4.74   False
   70.588    265583.45    265583.45   198.13    219.00    4.68   False
   70.638    240723.48    240723.48   198.11    216.00    4.65   False
   70.688    211873.74    211873.74   198.09    219.00    4.68   False
   70.738    185756.73    185756.73   198.07    218.00    4.67   False
   70.788    165808.55    165808.55   198.05    214.00    4.63   False
   70.838    152376.59    152376.59   198.03    212.00    4.60   False
   70.888    143210.51    143210.51   198.01    221.00    4.70   False
   70.938    134572.46    134572.46   197.99    214.00    4.63   False
   70.988    123447.87    123447.87   197.97    208.00    4.56   False
   71.038    109414.04    109414.04   197.94    204.00    4.52   False
   71.088     94081.87     94081.87   197.92    209.00    4.57   False
   71.138     79365.65     79365.65   197.90    209.00    4.57   False
   71.188     66618.22     66618.22   197.88    208.00    4.56   False
   71.238     56549.31     56549.31   197.86    212.00    4.60   False
   71.288     49340.84     49340.84   197.84    213.00    4.62   False
   71.338     44800.15     44800.15   197.82    218.00    4.67   False
   71.388     42542.15     42542.15   197.80    212.00    4.60   False
   71.438     42170.19     42170.19   197.78    205.00    4.53   False
   71.488     43422.31     43422.31   197.76    207.00    4.55   False
   71.538     46275.56     46275.56   197.74    204.00    4.52   False
   71.588     51024.78     51024.78   197.72    206.00    4.54   False
   71.638     58355.21     58355.21   197.70    211.00    4.59   False
   71.688     69412.54     69412.54   197.67    216.00    4.65   False
   71.738     85851.93     85851.93   197.65    214.00    4.63   False
   71.788    109826.40    109826.40   197.63    210.00    4.58   False
   71.838    143855.11    143855.11   197.61    219.00    4.68   False
   71.888    190478.30    190478.30   197.59    222.00    4.71   False
   71.938    251556.83    251556.83   197.57    224.00    4.73   False
   71.988    327110.11    327110.11   197.55    231.00    4.81   False
   72.038    414063.22    414063.22   197.53    227.00    4.76   False
   72.088    506207.89    506207.89   197.51    237.00    4.87   False
   72.138    595679.85    595679.85   197.49    235.00    4.85   False
   72.188    672618.24    672618.24   197.47    238.00    4.88   False
   72.238    722514.85    722514.85   197.45    245.00    4.95   False
   72.288    729437.67    729437.67   197.43    242.00    4.92   False
   72.338    689022.80    689022.80   197.41    248.00    4.98   False
   72.388    615968.60    615968.60   197.38    246.00    4.96   False
   72.438    534232.43    534232.43   197.36    243.00    4.93   False
   72.488    464346.14    464346.14   197.34    253.00    5.03   False
   72.538    418947.82    418947.82   197.32    259.00    5.09   False
   72.588    402801.95    402801.95   197.30    278.00    5.27   False
   72.638    413419.18    413419.18   197.28    281.00    5.30   False
   72.688    441584.72    441584.72   197.26    297.00    5.45   False
   72.738    472080.31    472080.31   197.24    310.00    5.57   False
   72.788    486582.97    486582.97   197.22    324.00    5.69   False
   72.838    471699.24    471699.24   197.20    322.00    5.67   False
   72.888    427117.76    427117.76   197.18    311.00    5.58   False
   72.938    363446.82    363446.82   197.16    295.00    5.43   False
   72.988    293637.44    293637.44   197.14    281.00    5.30   False
   73.038    227697.14    227697.14   197.11    259.00    5.09   False
   73.088    171506.33    171506.33   197.09    250.00    5.00   False
   73.138    127339.05    127339.05   197.07    239.00    4.89   False
   73.188     94859.11     94859.11   197.05    233.00    4.83   False
   73.238     72203.96     72203.96   197.03    227.00    4.76   False
   73.288     56954.07     56954.07   197.01    226.00    4.75   False
   73.338     46821.83     46821.83   196.99    223.00    4.72   False
   73.388     40000.99     40000.99   196.97    211.00    4.59   False
   73.438     35237.94     35237.94   196.95    209.00    4.57   False
   73.488     31744.12     31744.12   196.93    217.00    4.66   False
   73.538     29057.50     29057.50   196.91    214.00    4.63   False
   73.588     26917.79     26917.79   196.89    213.00    4.62   False
   73.638     25178.39     25178.39   196.87    217.00    4.66   False
   73.688     23753.33     23753.33   196.85    220.00    4.69   False
   73.738     22588.81     22588.81   196.82    210.00    4.58   False
   73.788     21649.14     21649.14   196.80    209.00    4.57   False
   73.838     20910.13     20910.13   196.78    215.00    4.64   False
   73.888     20356.11     20356.11   196.76    218.00    4.67   False
   73.938     19978.88     19978.88   196.74    215.00    4.64   False
   73.988     19778.18     19778.18   196.72    217.00    4.66   False
   74.038     19763.93     19763.93   196.70    221.00    4.70   False
   74.088     19961.36     19961.36   196.68    217.00    4.66   False
   74.138     20420.13     20420.13   196.66    219.00    4.68   False
   74.188     21228.21     21228.21   196.64    220.00    4.69   False
   74.238     22529.54     22529.54   196.62    228.00    4.77   False
   74.288     24541.33     24541.33   196.60    229.00    4.79   False
   74.338     27564.55     27564.55   196.58    230.00    4.80   False
   74.388     31982.37     31982.37   196.56    234.00    4.84   False
   74.438     38248.08     38248.08   196.53    251.00    5.01   False
   74.488     46870.75     46870.75   196.51    261.00    5.11   False
   74.538     58398.74     58398.74   196.49    288.00    5.37   False
   74.588     73363.13     73363.13   196.47    313.00    5.59   False
   74.638     92124.00     92124.00   196.45    362.00    6.02   False
   74.688    114724.22    114724.22   196.43    424.00    6.51   False
   74.738    141099.18    141099.18   196.41    524.00    7.24   False
   74.788    171372.93    171372.93   196.39    646.00    8.04   False
   74.838    205087.57    205087.57   196.37    781.00    8.84   False
   74.888    239529.59    239529.59   196.35    920.00    9.59   False
   74.938    268534.93    268534.93   196.33   1024.00   10.12   False
   74.988    283289.97    283289.97   196.31   1120.00   10.58   False
   75.038    277168.75    277168.75   196.29   1187.00   10.89   False
   75.088    251590.59    251590.59   196.26   1187.00   10.89   False
   75.138    214769.98    214769.98   196.24   1166.00   10.80   False
   75.188    175407.08    175407.08   196.22   1114.00   10.55   False
   75.238    139218.76    139218.76   196.20   1044.00   10.22   False
   75.288    108805.66    108805.66   196.18    991.00    9.95   False
   75.338     84557.66     84557.66   196.16    927.00    9.63   False
   75.388     65797.54     65797.54   196.14    823.00    9.07   False
   75.438     51621.37     51621.37   196.12    717.00    8.47   False
   75.488     41125.43     41125.43   196.10    619.00    7.87   False
   75.538     33446.22     33446.22   196.08    520.00    7.21   False
   75.588     27852.65     27852.65   196.06    421.00    6.49   False
   75.638     23790.52     23790.52   196.04    353.00    5.94   False
   75.688     20855.90     20855.90   196.02    308.00    5.55   False
   75.738     18750.32     18750.32   196.00    273.00    5.22   False
   75.788     17250.27     17250.27   195.97    256.00    5.06   False
   75.838     16192.36     16192.36   195.95    245.00    4.95   False
   75.888     15465.77     15465.77   195.93    234.00    4.84   False
   75.938     15006.84     15006.84   195.91    230.00    4.80   False
   75.988     14796.75     14796.75   195.89    224.00    4.73   False
   76.038     14865.79     14865.79   195.87    232.00    4.82   False
   76.088     15307.00     15307.00   195.85    226.00    4.75   False
   76.138     16296.90     16296.90   195.83    222.00    4.71   False
   76.188     18113.08     18113.08   195.81    222.00    4.71   False
   76.238     21129.23     21129.23   195.79    227.00    4.76   False
   76.288     25763.50     25763.50   195.77    225.00    4.74   False
   76.338     32364.61     32364.61   195.75    226.00    4.75   False
   76.388     41042.92     41042.92   195.73    227.00    4.76   False
   76.438     51473.42     51473.42   195.70    229.00    4.79   False
   76.488     62686.77     62686.77   195.68    235.00    4.85   False
   76.538     72861.09     72861.09   195.66    233.00    4.83   False
   76.588     79378.30     79378.30   195.64    243.00    4.93   False
   76.638     79887.33     79887.33   195.62    238.00    4.88   False
   76.688     74147.16     74147.16   195.60    237.00    4.87   False
   76.738     64263.66     64263.66   195.58    236.00    4.86   False
   76.788     52939.12     52939.12   195.56    232.00    4.82   False
   76.838     42169.97     42169.97   195.54    231.00    4.81   False
   76.888     33065.53     33065.53   195.52    227.00    4.76   False
   76.938     26044.55     26044.55   195.50    225.00    4.74   False
   76.988     21051.87     21051.87   195.48    220.00    4.69   False
   77.038     17764.78     17764.78   195.46    218.00    4.67   False
   77.088     15777.71     15777.71   195.44    215.00    4.64   False
   77.138     14736.97     14736.97   195.41    219.00    4.68   False
   77.188     14413.87     14413.87   195.39    224.00    4.73   False
   77.238     14726.22     14726.22   195.37    225.00    4.74   False
   77.288     15724.95     15724.95   195.35    222.00    4.71   False
   77.338     17554.86     17554.86   195.33    231.00    4.81   False
   77.388     20389.64     20389.64   195.31    243.00    4.93   False
   77.438     24341.68     24341.68   195.29    250.00    5.00   False
   77.488     29355.58     29355.58   195.27    269.00    5.19   False
   77.538     35096.26     35096.26   195.25    286.00    5.35   False
   77.588     40830.62     40830.62   195.23    310.00    5.57   False
   77.638     45351.97     45351.97   195.21    325.00    5.70   False
   77.688     47246.83     47246.83   195.19    332.00    5.76   False
   77.738     45791.84     45791.84   195.17    337.00    5.81   False
   77.788     41622.69     41622.69   195.14    329.00    5.74   False
   77.838     36144.05     36144.05   195.12    303.00    5.50   False
   77.888     30598.32     30598.32   195.10    278.00    5.27   False
   77.938     25751.35     25751.35   195.08    268.00    5.18   False
   77.988     21956.05     21956.05   195.06    252.00    5.02   False
   78.038     19270.61     19270.61   195.04    236.00    4.86   False
   78.088     17569.05     17569.05   195.02    228.00    4.77   False
   78.138     16642.39     16642.39   195.00    219.00    4.68   False
   78.188     16277.43     16277.43   194.98    225.00    4.74   False
   78.238     16301.92     16301.92   194.96    222.00    4.71   False
   78.288     16598.52     16598.52   194.94    214.00    4.63   False
   78.338     17099.16     17099.16   194.92    228.00    4.77   False
   78.388     17772.19     17772.19   194.90    221.00    4.70   False
   78.438     18610.51     18610.51   194.88    217.00    4.66   False
   78.488     19623.70     19623.70   194.85    221.00    4.70   False
   78.538     20834.29     20834.29   194.83    222.00    4.71   False
   78.588     22276.55     22276.55   194.81    226.00    4.75   False
   78.638     23996.31     23996.31   194.79    237.00    4.87   False
   78.688     26050.56     26050.56   194.77    246.00    4.96   False
   78.738     28507.14     28507.14   194.75    255.00    5.05   False
   78.788     31446.77     31446.77   194.73    269.00    5.19   False
   78.838     34972.43     34972.43   194.71    284.00    5.33   False
   78.888     39234.72     39234.72   194.69    302.00    5.50   False
   78.938     44490.10     44490.10   194.67    313.00    5.59   False
   78.988     51229.16     51229.16   194.65    327.00    5.72   False
   79.038     60412.11     60412.11   194.63    321.00    5.67   False
   79.088     73763.89     73763.89   194.61    333.00    5.77   False
   79.138     94008.15     94008.15   194.58    331.00    5.75   False
   79.188    124947.90    124947.90   194.56    332.00    5.76   False
   79.238    171234.13    171234.13   194.54    358.00    5.98   False
   79.288    237564.55    237564.55   194.52    402.00    6.34   False
   79.338    327134.35    327134.35   194.50    460.00    6.78   False
   79.388    439397.02    439397.02   194.48    557.00    7.46   False
   79.438    567560.71    567560.71   194.46    660.00    8.12   False
   79.488    696804.07    696804.07   194.44    769.00    8.77   False
   79.538    804158.92    804158.92   194.42    859.00    9.27   False
   79.588    861142.16    861142.16   194.40    934.00    9.66   False
   79.638    845657.02    845657.02   194.38    955.00    9.77   False
   79.688    761146.53    761146.53   194.36    921.00    9.60   False
   79.738    635764.52    635764.52   194.34    824.00    9.08   False
   79.788    500862.56    500862.56   194.32    694.00    8.33   False
   79.838    377718.66    377718.66   194.29    578.00    7.60   False
   79.888    277029.29    277029.29   194.27    474.00    6.88   False
   79.938    201833.80    201833.80   194.25    402.00    6.34   False
   79.988    150269.05    150269.05   194.23    344.00    5.87   False
   80.038    117954.65    117954.65   194.21    306.00    5.53   False
   80.088     99868.68     99868.68   194.19    300.00    5.48   False
   80.138     91460.66     91460.66   194.17    292.00    5.40   False
   80.188     88983.31     88983.31   194.15    292.00    5.40   False
   80.238     89295.30     89295.30   194.13    302.00    5.50   False
   80.288     89628.20     89628.20   194.11    304.00    5.51   False
   80.338     87871.33     87871.33   194.09    306.00    5.53   False
   80.388     83169.86     83169.86   194.07    305.00    5.52   False
   80.438     76029.48     76029.48   194.05    303.00    5.50   False
   80.488     67810.84     67810.84   194.02    299.00    5.47   False
   80.538     59935.79     59935.79   194.00    278.00    5.27   False
   80.588     53372.67     53372.67   193.98    259.00    5.09   False
   80.638     48600.27     48600.27   193.96    257.00    5.07   False
   80.688     45773.64     45773.64   193.94    245.00    4.95   False
   80.738     44921.43     44921.43   193.92    237.00    4.87   False
   80.788     46154.13     46154.13   193.90    240.00    4.90   False
   80.838     49881.05     49881.05   193.88    233.00    4.83   False
   80.888     57012.38     57012.38   193.86    232.00    4.82   False
   80.938     69086.40     69086.40   193.84    235.00    4.85   False
   80.988     88217.27     88217.27   193.82    241.00    4.91   False
   81.038    116741.02    116741.02   193.80    257.00    5.07   False
   81.088    156499.67    156499.67   193.78    274.00    5.23   False
   81.138    207834.73    207834.73   193.76    292.00    5.40   False
   81.188    268424.10    268424.10   193.73    309.00    5.56   False
   81.238    331949.30    331949.30   193.71    333.00    5.77   False
   81.288    386857.33    386857.33   193.69    360.00    6.00   False
   81.338    418087.14    418087.14   193.67    381.00    6.17   False
   81.388    416207.26    416207.26   193.65    387.00    6.22   False
   81.438    386528.00    386528.00   193.63    387.00    6.22   False
   81.488    343854.25    343854.25   193.61    386.00    6.21   False
   81.538    300877.02    300877.02   193.59    382.00    6.18   False
   81.588    263396.94    263396.94   193.57    368.00    6.07   False
   81.638    230961.78    230961.78   193.55    363.00    6.02   False
   81.688    200060.57    200060.57   193.53    352.00    5.93   False
   81.738    168773.81    168773.81   193.51    337.00    5.81   False
   81.788    138429.79    138429.79   193.49    321.00    5.67   False
   81.838    111268.76    111268.76   193.46    297.00    5.45   False
   81.888     88628.76     88628.76   193.44    281.00    5.30   False
   81.938     70870.56     70870.56   193.42    265.00    5.15   False
   81.988     57715.99     57715.99   193.40    255.00    5.05   False
   82.038     48496.96     48496.96   193.38    251.00    5.01   False
   82.088     42367.46     42367.46   193.36    237.00    4.87   False
   82.138     38497.42     38497.42   193.34    238.00    4.88   False
   82.188     36205.79     36205.79   193.32    237.00    4.87   False
   82.238     35011.06     35011.06   193.30    228.00    4.77   False
   82.288     34617.67     34617.67   193.28    240.00    4.90   False
   82.338     34874.13     34874.13   193.26    234.00    4.84   False
   82.388     35733.38     35733.38   193.24    226.00    4.75   False
   82.438     37233.52     37233.52   193.22    229.00    4.79   False
   82.488     39510.45     39510.45   193.20    228.00    4.77   False
   82.538     42854.70     42854.70   193.17    233.00    4.83   False
   82.588     47827.41     47827.41   193.15    243.00    4.93   False
   82.638     55441.30     55441.30   193.13    241.00    4.91   False
   82.688     67375.57     67375.57   193.11    257.00    5.07   False
   82.738     86122.86     86122.86   193.09    279.00    5.28   False
   82.788    114887.58    114887.58   193.07    305.00    5.52   False
   82.838    157034.19    157034.19   193.05    345.00    5.87   False
   82.888    214992.13    214992.13   193.03    410.00    6.40   False
   82.938    288724.78    288724.78   193.01    455.00    6.75   False
   82.988    373929.89    373929.89   192.99    545.00    7.38   False
   83.038    459915.29    459915.29   192.97    622.00    7.89   False
   83.088    527885.57    527885.57   192.95    673.00    8.20   False
   83.138    554977.40    554977.40   192.93    725.00    8.51   False
   83.188    529673.31    529673.31   192.91    717.00    8.47   False
   83.238    463166.57    463166.57   192.88    661.00    8.13   False
   83.288    378432.44    378432.44   192.86    592.00    7.69   False
   83.338    294598.39    294598.39   192.84    518.00    7.20   False
   83.388    222670.71    222670.71   192.82    443.00    6.66   False
   83.438    167258.72    167258.72   192.80    371.00    6.09   False
   83.488    128820.71    128820.71   192.78    336.00    5.80   False
   83.538    105622.37    105622.37   192.76    290.00    5.39   False
   83.588     95419.42     95419.42   192.74    265.00    5.15   False
   83.638     96608.84     96608.84   192.72    252.00    5.02   False
   83.688    108620.83    108620.83   192.70    250.00    5.00   False
   83.738    131550.55    131550.55   192.68    244.00    4.94   False
   83.788    165236.92    165236.92   192.66    242.00    4.92   False
   83.838    208070.62    208070.62   192.64    241.00    4.91   False
   83.888    255668.70    255668.70   192.61    243.00    4.93   False
   83.938    299445.42    299445.42   192.59    248.00    4.98   False
   83.988    326544.44    326544.44   192.57    253.00    5.03   False
   84.038    325526.12    325526.12   192.55    252.00    5.02   False
   84.088    296227.07    296227.07   192.53    264.00    5.14   False
   84.138    249914.14    249914.14   192.51    266.00    5.16   False
   84.188    199442.39    199442.39   192.49    282.00    5.31   False
   84.238    153345.82    153345.82   192.47    291.00    5.39   False
   84.288    115754.21    115754.21   192.45    313.00    5.59   False
   84.338     87700.55     87700.55   192.43    346.00    5.88   False
   84.388     68273.32     68273.32   192.41    374.00    6.12   False
   84.438     55595.61     55595.61   192.39    415.00    6.44   False
   84.488     47600.11     47600.11   192.37    430.00    6.56   False
   84.538     42534.40     42534.40   192.35    433.00    6.58   False
   84.588     39213.78     39213.78   192.32    430.00    6.56   False
   84.638     37021.93     37021.93   192.30    406.00    6.37   False
   84.688     35727.40     35727.40   192.28    384.00    6.20   False
   84.738     35308.03     35308.03   192.26    349.00    5.91   False
   84.788     35856.62     35856.62   192.24    318.00    5.64   False
   84.838     37521.42     37521.42   192.22    307.00    5.54   False
   84.888     40442.11     40442.11   192.20    298.00    5.46   False
   84.938     44671.33     44671.33   192.18    296.00    5.44   False
   84.988     50085.36     50085.36   192.16    304.00    5.51   False
   85.038     56282.65     56282.65   192.14    313.00    5.59   False
   85.088     62481.65     62481.65   192.12    328.00    5.73   False
   85.138     67625.68     67625.68   192.10    346.00    5.88   False
   85.188     71141.80     71141.80   192.08    341.00    5.84   False
   85.238     73924.93     73924.93   192.05    335.00    5.79   False
   85.288     78139.63     78139.63   192.03    324.00    5.69   False
   85.338     86205.76     86205.76   192.01    336.00    5.80   False
   85.388    100205.24    100205.24   191.99    341.00    5.84   False
   85.438    121646.66    121646.66   191.97    341.00    5.84   False
   85.488    151230.59    151230.59   191.95    370.00    6.08   False
   85.538    188526.25    188526.25   191.93    414.00    6.43   False
   85.588    231441.16    231441.16   191.91    442.00    6.65   False
   85.638    275845.55    275845.55   191.89    490.00    7.00   False
   85.688    317548.72    317548.72   191.87    520.00    7.21   False
   85.738    357188.51    357188.51   191.85    532.00    7.29   False
   85.788    400617.39    400617.39   191.83    548.00    7.40   False
   85.838    451819.82    451819.82   191.81    561.00    7.49   False
   85.888    506409.55    506409.55   191.79    567.00    7.53   False
   85.938    549223.02    549223.02   191.76    585.00    7.65   False
   85.988    558749.05    558749.05   191.74    584.00    7.64   False
   86.038    523234.96    523234.96   191.72    558.00    7.47   False
   86.088    452831.68    452831.68   191.70    527.00    7.26   False
   86.138    368897.55    368897.55   191.68    481.00    6.94   False
   86.188    288715.49    288715.49   191.66    424.00    6.51   False
   86.238    221771.24    221771.24   191.64    370.00    6.08   False
   86.288    171759.01    171759.01   191.62    333.00    5.77   False
   86.338    138873.22    138873.22   191.60    312.00    5.59   False
   86.388    121711.96    121711.96   191.58    301.00    5.49   False
   86.438    118824.13    118824.13   191.56    307.00    5.54   False
   86.488    129618.53    129618.53   191.54    314.00    5.60   False
   86.538    154392.80    154392.80   191.52    340.00    5.83   False
   86.588    193516.68    193516.68   191.49    379.00    6.16   False
   86.638    246047.02    246047.02   191.47    427.00    6.53   False
   86.688    308033.62    308033.62   191.45    467.00    6.83   False
   86.738    370497.46    370497.46   191.43    535.00    7.31   False
   86.788    417933.84    417933.84   191.41    584.00    7.64   False
   86.838    432489.16    432489.16   191.39    602.00    7.76   False
   86.888    407508.23    407508.23   191.37    580.00    7.62   False
   86.938    354687.48    354687.48   191.35    532.00    7.29   False
   86.988    292815.28    292815.28   191.33    481.00    6.94   False
   87.038    236082.14    236082.14   191.31    426.00    6.53   False
   87.088    192018.34    192018.34   191.29    379.00    6.16   False
   87.138    163110.40    163110.40   191.27    329.00    5.74   False
   87.188    148300.72    148300.72   191.25    303.00    5.50   False
   87.238    144029.64    144029.64   191.23    288.00    5.37   False
   87.288    145095.44    145095.44   191.20    271.00    5.21   False
   87.338    146240.72    146240.72   191.18    269.00    5.19   False
   87.388    144655.54    144655.54   191.16    267.00    5.17   False
   87.438    140337.89    140337.89   191.14    263.00    5.13   False
   87.488    133559.13    133559.13   191.12    267.00    5.17   False
   87.538    123736.63    123736.63   191.10    260.00    5.10   False
   87.588    111089.96    111089.96   191.08    260.00    5.10   False
   87.638     97584.46     97584.46   191.06    263.00    5.13   False
   87.688     85501.22     85501.22   191.04    263.00    5.13   False
   87.738     76255.71     76255.71   191.02    270.00    5.20   False
   87.788     70472.68     70472.68   191.00    278.00    5.27   False
   87.838     68430.97     68430.97   190.98    293.00    5.41   False
   87.888     70448.91     70448.91   190.96    318.00    5.64   False
   87.938     77197.06     77197.06   190.93    364.00    6.03   False
   87.988     89915.48     89915.48   190.91    424.00    6.51   False
   88.038    110440.31    110440.31   190.89    512.00    7.16   False
   88.088    140933.26    140933.26   190.87    643.00    8.02   False
   88.138    183264.92    183264.92   190.85    817.00    9.04   False
   88.188    238112.73    238112.73   190.83    982.00    9.91   False
   88.238    303933.47    303933.47   190.81   1163.00   10.78   False
   88.288    375805.55    375805.55   190.79   1289.00   11.35   False
   88.338    444260.09    444260.09   190.77   1373.00   11.72   False
   88.388    497726.17    497726.17   190.75   1393.00   11.80   False
   88.438    532008.02    532008.02   190.73   1348.00   11.61   False
   88.488    553937.13    553937.13   190.71   1244.00   11.15   False
   88.538    569944.76    569944.76   190.69   1157.00   10.76   False
   88.588    576913.92    576913.92   190.67   1077.00   10.38   False
   88.638    567509.87    567509.87   190.64   1020.00   10.10   False
   88.688    539479.31    539479.31   190.62    965.00    9.82   False
   88.738    493515.56    493515.56   190.60    907.00    9.52   False
   88.788    430213.17    430213.17   190.58    858.00    9.26   False
   88.838    355719.97    355719.97   190.56    771.00    8.78   False
   88.888    281276.79    281276.79   190.54    647.00    8.04   False
   88.938    215875.53    215875.53   190.52    555.00    7.45   False
   88.988    163441.73    163441.73   190.50    468.00    6.84   False
   89.038    124202.29    124202.29   190.48    405.00    6.36   False
   89.088     96416.57     96416.57   190.46    348.00    5.90   False
   89.138     77561.71     77561.71   190.44    316.00    5.62   False
   89.188     65105.72     65105.72   190.42    291.00    5.39   False
   89.238     56949.76     56949.76   190.40    277.00    5.26   False
   89.288     51582.21     51582.21   190.37    278.00    5.27   False
   89.338     48033.05     48033.05   190.35    270.00    5.20   False
   89.388     45738.89     45738.89   190.33    262.00    5.12   False
   89.438     44403.84     44403.84   190.31    268.00    5.18   False
   89.488     43896.47     43896.47   190.29    270.00    5.20   False
   89.538     44189.65     44189.65   190.27    279.00    5.28   False
   89.588     45335.98     45335.98   190.25    287.00    5.36   False
   89.638     47474.93     47474.93   190.23    300.00    5.48   False
   89.688     50876.31     50876.31   190.21    319.00    5.65   False
   89.738     56028.29     56028.29   190.19    347.00    5.89   False
   89.788     63765.77     63765.77   190.17    378.00    6.15   False
   89.838     75415.69     75415.69   190.15    420.00    6.48   False
   89.888     92928.77     92928.77   190.13    469.00    6.85   False
   89.938    118870.55    118870.55   190.11    536.00    7.32   False
   89.988    155962.45    155962.45   190.08    645.00    8.03   False
   90.038    206074.17    206074.17   190.06    773.00    8.79   False
   90.088    268826.45    268826.45   190.04    925.00    9.62   False
   90.138    339687.17    339687.17   190.02   1115.00   10.56   False
   90.188    407901.33    407901.33   190.10   1254.00   11.20   False
   90.238    457894.14    457894.14   190.18   1367.00   11.69   False
   90.288    478221.83    478221.83   190.25   1400.00   11.83   False
   90.338    467884.99    467884.99   190.33   1327.00   11.52   False
   90.388    431127.16    431127.16   190.41   1188.00   10.90   False
   90.438    375832.43    375832.43   190.48   1038.00   10.19   False
   90.488    315531.41    315531.41   190.56    879.00    9.38   False
   90.538    264017.46    264017.46   190.64    738.00    8.59   False
   90.588    230285.87    230285.87   190.71    644.00    8.03   False
   90.638    218514.52    218514.52   190.79    594.00    7.71   False
   90.688    229291.10    229291.10   190.87    601.00    7.75   False
   90.738    260027.62    260027.62   190.94    643.00    8.02   False
   90.788    304459.09    304459.09   191.02    697.00    8.35   False
   90.838    351230.59    351230.59   191.10    786.00    8.87   False
   90.888    383109.40    383109.40   191.17    842.00    9.18   False
   90.938    383149.34    383149.34   191.25    847.00    9.20   False
   90.988    348531.94    348531.94   191.33    791.00    8.89   False
   91.038    292810.50    292810.50   191.40    702.00    8.38   False
   91.088    232420.62    232420.62   191.48    592.00    7.69   False
   91.138    177925.70    177925.70   191.56    508.00    7.13   False
   91.188    134038.45    134038.45   191.63    418.00    6.47   False
   91.238    101661.94    101661.94   191.71    362.00    6.02   False
   91.288     79520.50     79520.50   191.79    328.00    5.73   False
   91.338     65428.87     65428.87   191.86    299.00    5.47   False
   91.388     57237.12     57237.12   191.94    279.00    5.28   False
   91.438     53367.70     53367.70   192.02    270.00    5.20   False
   91.488     52960.04     52960.04   192.09    257.00    5.07   False
   91.538     55737.72     55737.72   192.17    253.00    5.03   False
   91.588     61730.00     61730.00   192.25    258.00    5.08   False
   91.638     70949.06     70949.06   192.32    257.00    5.07   False
   91.688     83070.29     83070.29   192.40    249.00    4.99   False
   91.738     97076.96     97076.96   192.48    245.00    4.95   False
   91.788    110923.85    110923.85   192.55    257.00    5.07   False
   91.838    122099.45    122099.45   192.63    260.00    5.10   False
   91.888    130097.90    130097.90   192.71    284.00    5.33   False
   91.938    137935.20    137935.20   192.78    296.00    5.44   False
   91.988    149590.83    149590.83   192.86    322.00    5.67   False
   92.038    166836.42    166836.42   192.94    343.00    5.86   False
   92.088    187884.23    187884.23   193.02    382.00    6.18   False
   92.138    206801.69    206801.69   193.09    405.00    6.36   False
   92.188    214841.17    214841.17   193.17    411.00    6.41   False
   92.238    206677.37    206677.37   193.25    416.00    6.45   False
   92.288    186132.33    186132.33   193.32    406.00    6.37   False
   92.338    162246.97    162246.97   193.40    372.00    6.10   False
   92.388    142325.79    142325.79   193.48    353.00    5.94   False
   92.438    129828.41    129828.41   193.55    330.00    5.74   False
   92.488    124850.60    124850.60   193.63    317.00    5.63   False
   92.538    124550.10    124550.10   193.71    313.00    5.59   False
   92.588    123681.68    123681.68   193.78    312.00    5.59   False
   92.638    117095.62    117095.62   193.86    309.00    5.56   False
   92.688    103743.85    103743.85   193.94    303.00    5.50   False
   92.738     86762.42     86762.42   194.01    288.00    5.37   False
   92.788     69793.73     69793.73   194.09    276.00    5.25   False
   92.838     55022.40     55022.40   194.17    264.00    5.14   False
   92.888     43301.63     43301.63   194.24    246.00    4.96   False
   92.938     34642.29     34642.29   194.32    249.00    4.99   False
   92.988     28586.54     28586.54   194.40    241.00    4.91   False
   93.038     24498.26     24498.26   194.47    251.00    5.01   False
   93.088     21770.72     21770.72   194.55    243.00    4.93   False
   93.138     19933.41     19933.41   194.63    246.00    4.96   False
   93.188     18672.35     18672.35   194.70    246.00    4.96   False
   93.238     17802.38     17802.38   194.78    249.00    4.99   False
   93.288     17227.84     17227.84   194.86    244.00    4.94   False
   93.338     16911.96     16911.96   194.93    252.00    5.02   False
   93.388     16859.94     16859.94   195.01    252.00    5.02   False
   93.438     17111.97     17111.97   195.09    258.00    5.08   False
   93.488     17738.74     17738.74   195.16    265.00    5.15   False
   93.538     18832.37     18832.37   195.24    263.00    5.13   False
   93.588     20489.40     20489.40   195.32    284.00    5.33   False
   93.638     22789.12     22789.12   195.39    299.00    5.47   False
   93.688     25772.00     25772.00   195.47    320.00    5.66   False
   93.738     29418.03     29418.03   195.55    344.00    5.87   False
   93.788     33652.97     33652.97   195.62    363.00    6.02   False
   93.838     38528.44     38528.44   195.70    372.00    6.10   False
   93.888     44625.68     44625.68   195.78    358.00    5.98   False
   93.938     53166.11     53166.11   195.85    351.00    5.92   False
   93.988     65436.65     65436.65   195.93    354.00    5.95   False
   94.038     81999.95     81999.95   196.01    330.00    5.74   False
   94.088    102046.61    102046.61   196.08    322.00    5.67   False
   94.138    122663.73    122663.73   196.16    334.00    5.78   False
   94.188    138197.78    138197.78   196.24    339.00    5.82   False
   94.238    141929.95    141929.95   196.31    345.00    5.87   False
   94.288    131595.69    131595.69   196.39    357.00    5.97   False
   94.338    111848.38    111848.38   196.47    360.00    6.00   False
   94.388     89381.80     89381.80   196.55    358.00    5.98   False
   94.438     68713.07     68713.07   196.62    372.00    6.10   False
   94.488     51892.47     51892.47   196.70    425.00    6.52   False
   94.538     39371.26     39371.26   196.78    511.00    7.15   False
   94.588     30694.15     30694.15   196.85    626.00    7.91   False
   94.638     25000.53     25000.53   196.93    770.00    8.78   False
   94.688     21385.81     21385.81   197.01    946.00    9.73   False
   94.738     19105.27     19105.27   197.08   1118.00   10.57   False
   94.788     17634.61     17634.61   197.16   1205.00   10.98   False
   94.838     16646.67     16646.67   197.24   1227.00   11.08   False
   94.888     15963.23     15963.23   197.31   1157.00   10.76   False
   94.938     15501.37     15501.37   197.39   1041.00   10.20   False
   94.988     15224.39     15224.39   197.47    873.00    9.34   False
   95.038     15113.75     15113.75   197.54    715.00    8.46   False
   95.088     15159.27     15159.27   197.62    562.00    7.50   False
   95.138     15356.41     15356.41   197.70    446.00    6.68   False
   95.188     15705.86     15705.86   197.77    377.00    6.14   False
   95.238     16214.10     16214.10   197.85    332.00    5.76   False
   95.288     16894.63     16894.63   197.93    297.00    5.45   False
   95.338     17769.70     17769.70   198.00    282.00    5.31   False
   95.388     18873.39     18873.39   198.08    276.00    5.25   False
   95.438     20257.64     20257.64   198.16    264.00    5.14   False
   95.488     22004.48     22004.48   198.23    261.00    5.11   False
   95.538     24250.08     24250.08   198.31    266.00    5.16   False
   95.588     27228.03     27228.03   198.39    261.00    5.11   False
   95.638     31338.50     31338.50   198.46    253.00    5.03   False
   95.688     37241.30     37241.30   198.54    258.00    5.08   False
   95.738     45953.10     45953.10   198.62    262.00    5.12   False
   95.788     58901.14     58901.14   198.69    260.00    5.10   False
   95.838     77857.30     77857.30   198.77    283.00    5.32   False
   95.888    104652.36    104652.36   198.85    307.00    5.54   False
   95.938    140541.85    140541.85   198.92    344.00    5.87   False
   95.988    185089.63    185089.63   199.00    402.00    6.34   False
   96.038    234802.38    234802.38   199.08    453.00    6.73   False
   96.088    282954.54    282954.54   199.15    529.00    7.27   False
   96.138    321313.71    321313.71   199.23    604.00    7.77   False
   96.188    340322.66    340322.66   199.31    661.00    8.13   False
   96.238    330772.02    330772.02   199.38    672.00    8.20   False
   96.288    293398.97    293398.97   199.46    629.00    7.93   False
   96.338    241140.26    241140.26   199.54    588.00    7.67   False
   96.388    188011.87    188011.87   199.61    510.00    7.14   False
   96.438    142173.37    142173.37   199.69    440.00    6.63   False
   96.488    106612.28    106612.28   199.77    377.00    6.14   False
   96.538     81305.03     81305.03   199.84    330.00    5.74   False
   96.588     64760.39     64760.39   199.92    301.00    5.49   False
   96.638     55075.58     55075.58   200.00    280.00    5.29   False
   96.688     50617.45     50617.45   200.08    269.00    5.19   False
   96.738     50315.11     50315.11   200.15    258.00    5.08   False
   96.788     53611.22     53611.22   200.23    252.00    5.02   False
   96.838     60192.65     60192.65   200.31    251.00    5.01   False
   96.888     69620.73     69620.73   200.38    252.00    5.02   False
   96.938     80892.00     80892.00   200.46    256.00    5.06   False
   96.988     91930.49     91930.49   200.54    253.00    5.03   False
   97.038     99635.91     99635.91   200.61    253.00    5.03   False
   97.088    101959.84    101959.84   200.69    253.00    5.03   False
   97.138    100522.61    100522.61   200.77    262.00    5.12   False
   97.188     99423.95     99423.95   200.84    265.00    5.15   False
   97.238    102210.26    102210.26   200.92    284.00    5.33   False
   97.288    110744.37    110744.37   201.00    291.00    5.39   False
   97.338    125128.49    125128.49   201.07    323.00    5.68   False
   97.388    143522.63    143522.63   201.15    374.00    6.12   False
   97.438    162866.24    162866.24   201.23    431.00    6.57   False
   97.488    181542.10    181542.10   201.30    511.00    7.15   False
   97.538    200148.08    200148.08   201.38    602.00    7.76   False
   97.588    217614.69    217614.69   201.46    678.00    8.23   False
   97.638    227867.36    227867.36   201.53    743.00    8.62   False
   97.688    222706.02    222706.02   201.61    756.00    8.69   False
   97.738    200597.17    200597.17   201.69    717.00    8.47   False
   97.788    169162.51    169162.51   201.76    657.00    8.11   False
   97.838    137629.23    137629.23   201.84    581.00    7.62   False
   97.888    111793.58    111793.58   201.92    490.00    7.00   False
   97.938     94280.88     94280.88   201.99    418.00    6.47   False
   97.988     85790.34     85790.34   202.07    364.00    6.03   False
   98.038     85800.40     85800.40   202.15    335.00    5.79   False
   98.088     92852.74     92852.74   202.22    306.00    5.53   False
   98.138    104471.88    104471.88   202.30    290.00    5.39   False
   98.188    116658.92    116658.92   202.38    286.00    5.35   False
   98.238    123753.60    123753.60   202.45    283.00    5.32   False
   98.288    121068.71    121068.71   202.53    283.00    5.32   False
   98.338    109169.56    109169.56   202.61    274.00    5.23   False
   98.388     92968.90     92968.90   202.68    262.00    5.12   False
   98.438     77172.87     77172.87   202.76    266.00    5.16   False
   98.488     64502.92     64502.92   202.84    261.00    5.11   False
   98.538     56215.51     56215.51   202.91    261.00    5.11   False
   98.588     52786.82     52786.82   202.99    264.00    5.14   False
   98.638     54299.55     54299.55   203.07    269.00    5.19   False
   98.688     60586.80     60586.80   203.14    278.00    5.27   False
   98.738     71154.47     71154.47   203.22    288.00    5.37   False
   98.788     84866.05     84866.05   203.30    306.00    5.53   False
   98.838     99332.91     99332.91   203.37    319.00    5.65   False
   98.888    110317.85    110317.85   203.45    330.00    5.74   False
   98.938    112972.46    112972.46   203.53    343.00    5.86   False
   98.988    105960.91    105960.91   203.61    341.00    5.84   False
   99.038     92995.96     92995.96   203.68    325.00    5.70   False
   99.088     79041.42     79041.42   203.76    318.00    5.64   False
   99.138     67435.94     67435.94   203.84    298.00    5.46   False
   99.188     59922.42     59922.42   203.91    299.00    5.47   False
   99.238     57361.47     57361.47   203.99    288.00    5.37   False
   99.288     60173.20     60173.20   204.07    309.00    5.56   False
   99.338     68493.35     68493.35   204.14    344.00    5.87   False
   99.388     82089.45     82089.45   204.22    382.00    6.18   False
   99.438    100031.88    100031.88   204.30    422.00    6.50   False
   99.488    120039.27    120039.27   204.37    470.00    6.86   False
   99.538    137631.55    137631.55   204.45    512.00    7.16   False
   99.588    146835.80    146835.80   204.53    514.00    7.17   False
   99.638    144791.99    144791.99   204.60    515.00    7.18   False
   99.688    135254.46    135254.46   204.68    488.00    6.99   False
   99.738    124721.44    124721.44   204.76    440.00    6.63   False
   99.788    117617.27    117617.27   204.83    396.00    6.29   False
   99.838    115324.74    115324.74   204.91    366.00    6.05   False
   99.888    116674.81    116674.81   204.99    332.00    5.76   False
   99.938    118882.36    118882.36   205.06    311.00    5.58   False
   99.988    120208.77    120208.77   205.14    305.00    5.52   False
  100.038    122704.60    122704.60   205.22    300.00    5.48   False
  100.088    131012.51    131012.51   205.29    293.00    5.41   False
  100.138    149391.97    149391.97   205.37    286.00    5.35   False
  100.188    180227.87    180227.87   205.45    306.00    5.53   False
  100.238    223191.43    223191.43   205.52    313.00    5.59   False
  100.288    273812.49    273812.49   205.60    317.00    5.63   False
  100.338    321164.79    321164.79   205.68    327.00    5.72   False
  100.388    347685.77    347685.77   205.75    343.00    5.86   False
  100.438    339184.09    339184.09   205.83    330.00    5.74   False
  100.488    299256.08    299256.08   205.91    320.00    5.66   False
  100.538    244863.38    244863.38   205.98    307.00    5.54   False
  100.588    191010.60    191010.60   206.06    298.00    5.46   False
  100.638    145519.68    145519.68   206.14    282.00    5.31   False
  100.688    111021.05    111021.05   206.21    274.00    5.23   False
  100.738     87313.59     87313.59   206.29    266.00    5.16   False
  100.788     72929.29     72929.29   206.37    274.00    5.23   False
  100.838     66203.33     66203.33   206.44    271.00    5.21   False
  100.888     65891.34     65891.34   206.52    274.00    5.23   False
  100.938     71298.47     71298.47   206.60    290.00    5.39   False
  100.988     81998.59     81998.59   206.67    302.00    5.50   False
  101.038     97287.65     97287.65   206.75    321.00    5.67   False
  101.088    115413.52    115413.52   206.83    350.00    5.92   False
  101.138    132557.00    132557.00   206.90    367.00    6.06   False
  101.188    142575.87    142575.87   206.98    386.00    6.21   False
  101.238    140399.61    140399.61   207.06    394.00    6.28   False
  101.288    127294.75    127294.75   207.14    370.00    6.08   False
  101.338    109574.58    109574.58   207.21    356.00    5.97   False
  101.388     93120.01     93120.01   207.29    332.00    5.76   False
  101.438     81397.28     81397.28   207.37    310.00    5.57   False
  101.488     76087.77     76087.77   207.44    288.00    5.37   False
  101.538     77757.97     77757.97   207.52    279.00    5.28   False
  101.588     86098.56     86098.56   207.60    281.00    5.30   False
  101.638     99840.64     99840.64   207.67    274.00    5.23   False
  101.688    116282.21    116282.21   207.75    284.00    5.33   False
  101.738    130504.57    130504.57   207.83    280.00    5.29   False
  101.788    135989.47    135989.47   207.90    270.00    5.20   False
  101.838    129146.59    129146.59   207.98    278.00    5.27   False
  101.888    113045.21    113045.21   208.06    269.00    5.19   False
  101.938     93816.71     93816.71   208.13    273.00    5.22   False
  101.988     75924.25     75924.25   208.21    268.00    5.18   False
  102.038     61409.88     61409.88   208.29    267.00    5.17   False
  102.088     50768.50     50768.50   208.36    265.00    5.15   False
  102.138     43672.20     43672.20   208.44    257.00    5.34   False
  102.188     39435.66     39435.66   208.52    258.00    5.35   False
  102.238     37331.54     37331.54   208.59    267.00    5.45   False
  102.288     36773.92     36773.92   208.67    267.00    5.45   False
  102.338     37383.97     37383.97   208.75    277.00    5.55   False
  102.388     38982.16     38982.16   208.82    287.00    5.65   False
  102.438     41561.15     41561.15   208.90    302.00    5.79   False
  102.488     45283.41     45283.41   208.98    332.00    6.07   False
  102.538     50536.45     50536.45   209.05    360.00    6.32   False
  102.588     58069.31     58069.31   209.13    411.00    6.76   False
  102.638     69213.25     69213.25   209.21    457.00    7.13   False
  102.688     86133.88     86133.88   209.28    524.00    7.63   False
  102.738    111966.33    111966.33   209.36    608.00    8.22   False
  102.788    150595.28    150595.28   209.44    699.00    8.81   False
  102.838    205848.34    205848.34   209.51    861.00    9.78   False
  102.888    280010.72    280010.72   209.59   1096.00   11.04   False
  102.938    371607.84    371607.84   209.67   1377.00   12.37   False
  102.988    471956.76    471956.76   209.74   1685.00   13.68   False
  103.038    560387.07    560387.07   209.82   1901.00   14.53   False
  103.088    605102.82    605102.82   209.90   2069.00   15.16   False
  103.138    584119.37    584119.37   209.97   2016.00   14.97   False
  103.188    509162.52    509162.52   210.05   1800.00   14.14   False
  103.238    412480.87    412480.87   210.13   1500.00   12.91   False
  103.288    319996.11    319996.11   210.20   1181.00   11.46   False
  103.338    244523.88    244523.88   210.28    937.00   10.20   False
  103.388    189976.31    189976.31   210.36    728.00    8.99   False
  103.438    155300.51    155300.51   210.43    629.00    8.36   False
  103.488    136790.35    136790.35   210.51    576.00    8.00   False
  103.538    129353.25    129353.25   210.59    556.00    7.86   False
  103.588    127122.02    127122.02   210.67    535.00    7.71   False
  103.638    124684.42    124684.42   210.74    519.00    7.59   False
  103.688    119461.75    119461.75   210.82    486.00    7.35   False
  103.738    111791.18    111791.18   210.90    465.00    7.19   False
  103.788    102221.19    102221.19   210.97    429.00    6.90   False
  103.838     90771.19     90771.19   211.05    385.00    6.54   False
  103.888     78048.25     78048.25   211.13    361.00    6.33   False
  103.938     65317.36     65317.36   211.20    342.00    6.16   False
  103.988     53829.34     53829.34   211.28    312.00    5.89   False
  104.038     44308.36     44308.36   211.36    293.00    5.71   False
  104.088     36883.90     36883.90   211.43    279.00    5.57   False
  104.138     31326.82     31326.82   211.51    277.00    5.55   False
  104.188     27273.24     27273.24   211.59    265.00    5.43   False
  104.238     24353.31     24353.31   211.66    257.00    5.34   False
  104.288     22255.50     22255.50   211.74    256.00    5.33   False
  104.338     20752.48     20752.48   211.82    250.00    5.27   False
  104.388     19703.71     19703.71   211.89    260.00    5.37   False
  104.438     19047.16     19047.16   211.97    261.00    5.39   False
  104.488     18788.06     18788.06   212.05    258.00    5.35   False
  104.538     18985.54     18985.54   212.12    263.00    5.41   False
  104.588     19731.86     19731.86   212.20    268.00    5.46   False
  104.638     21117.85     21117.85   212.28    284.00    5.62   False
  104.688     23181.31     23181.31   212.35    306.00    5.83   False
  104.738     25832.81     25832.81   212.43    325.00    6.01   False
  104.788     28737.99     28737.99   212.51    337.00    6.12   False
  104.838     31180.17     31180.17   212.58    337.00    6.12   False
  104.888     32204.63     32204.63   212.66    344.00    6.18   False
  104.938     31381.95     31381.95   212.74    340.00    6.15   False
  104.988     29313.17     29313.17   212.81    337.00    6.12   False
  105.038     26992.33     26992.33   212.89    328.00    6.04   False
  105.088     25118.30     25118.30   212.97    321.00    5.97   False
  105.138     24034.32     24034.32   213.04    306.00    5.83   False
  105.188     23908.15     23908.15   213.12    295.00    5.73   False
  105.238     24921.71     24921.71   213.20    289.00    5.67   False
  105.288     27419.73     27419.73   213.27    281.00    5.59   False
  105.338     31963.43     31963.43   213.35    267.00    5.45   False
  105.388     39291.21     39291.21   213.43    266.00    5.44   False
  105.438     50176.91     50176.91   213.50    270.00    5.48   False
  105.488     65150.78     65150.78   213.58    263.00    5.41   False
  105.538     84063.62     84063.62   213.66    256.00    5.33   False
  105.588    105400.51    105400.51   213.73    266.00    5.44   False
  105.638    125250.58    125250.58   213.81    264.00    5.42   False
  105.688    137026.02    137026.02   213.89    259.00    5.36   False
  105.738    135075.35    135075.35   213.96    261.00    5.39   False
  105.788    120435.37    120435.37   214.04    261.00    5.39   False
  105.838     99635.67     99635.67   214.12    258.00    5.35   False
  105.888     78682.32     78682.32   214.20    253.00    5.30   False
  105.938     60723.62     60723.62   214.27    248.00    5.25   False
  105.988     46791.39     46791.39   214.35    244.00    5.21   False
  106.038     36767.49     36767.49   214.43    249.00    5.26   False
  106.088     29987.78     29987.78   214.50    251.00    5.28   False
  106.138     25629.78     25629.78   214.58    245.00    5.22   False
  106.188     22952.36     22952.36   214.66    245.00    5.22   False
  106.238     21400.47     21400.47   214.73    247.00    5.24   False
  106.288     20608.30     20608.30   214.81    247.00    5.24   False
  106.338     20349.42     20349.42   214.89    254.00    5.31   False
  106.388     20472.70     20472.70   214.96    259.00    5.36   False
  106.438     20845.54     20845.54   215.04    250.00    5.27   False
  106.488     21337.72     21337.72   215.12    251.00    5.28   False
  106.538     21888.80     21888.80   215.19    258.00    5.35   False
  106.588     22579.66     22579.66   215.27    252.00    5.29   False
  106.638     23583.57     23583.57   215.35    255.00    5.32   False
  106.688     25099.31     25099.31   215.42    259.00    5.36   False
  106.738     27371.94     27371.94   215.50    256.00    5.33   False
  106.788     30765.46     30765.46   215.58    264.00    5.42   False
  106.838     35840.76     35840.76   215.65    268.00    5.46   False
  106.888     43402.83     43402.83   215.73    281.00    5.59   False
  106.938     54466.04     54466.04   215.81    303.00    5.80   False
  106.988     70087.45     70087.45   215.88    331.00    6.06   False
  107.038     91048.89     91048.89   215.96    371.00    6.42   False
  107.088    117373.98    117373.98   216.04    420.00    6.83   False
  107.138    147550.43    147550.43   216.11    484.00    7.33   False
  107.188    177351.92    177351.92   216.19    532.00    7.69   False
  107.238    199697.52    199697.52   216.27    576.00    8.00   False
  107.288    209292.24    209292.24   216.34    582.00    8.04   False
  107.338    209225.71    209225.71   216.42    563.00    7.91   False
  107.388    208585.21    208585.21   216.50    527.00    7.65   False
  107.438    214528.84    214528.84   216.57    490.00    7.38   False
  107.488    228646.30    228646.30   216.65    465.00    7.19   False
  107.538    246252.05    246252.05   216.73    467.00    7.20   False
  107.588    256608.55    256608.55   216.80    449.00    7.06   False
  107.638    248506.95    248506.95   216.88    416.00    6.80   False
  107.688    220738.10    220738.10   216.96    393.00    6.61   False
  107.738    182623.36    182623.36   217.03    366.00    6.38   False
  107.788    144167.83    144167.83   217.11    331.00    6.06   False
  107.838    110923.74    110923.74   217.19    316.00    5.93   False
  107.888     84792.25     84792.25   217.26    297.00    5.74   False
  107.938     65675.32     65675.32   217.34    294.00    5.72   False
  107.988     52522.84     52522.84   217.42    292.00    5.70   False
  108.038     43991.53     43991.53   217.49    286.00    5.64   False
  108.088     38870.32     38870.32   217.57    295.00    5.73   False
  108.138     36297.52     36297.52   217.65    306.00    6.18   False
  108.188     35811.54     35811.54   217.72    315.00    6.28   False
  108.238     37274.85     37274.85   217.80    334.00    6.46   False
  108.288     40684.15     40684.15   217.88    373.00    6.83   False
  108.338     45921.93     45921.93   217.96    406.00    7.12   False
  108.388     52470.65     52470.65   218.03    447.00    7.47   False
  108.438     59027.50     59027.50   218.11    499.00    7.90   False
  108.488     63272.04     63272.04   218.19    507.00    7.96   False
  108.538     62857.70     62857.70   218.26    506.00    7.95   False
  108.588     57591.79     57591.79   218.34    488.00    7.81   False
  108.638     49624.06     49624.06   218.42    432.00    7.35   False
  108.688     41305.52     41305.52   218.49    391.00    6.99   False
  108.738     33985.32     33985.32   218.57    342.00    6.54   False
  108.788     28159.68     28159.68   218.65    315.00    6.28   False
  108.838     23848.31     23848.31   218.72    292.00    6.04   False
  108.888     20837.25     20837.25   218.80    275.00    5.86   False
  108.938     18828.46     18828.46   218.88    274.00    5.85   False
  108.988     17534.96     17534.96   218.95    259.00    5.69   False
  109.038     16729.52     16729.52   219.03    250.00    5.59   False
  109.088     16255.71     16255.71   219.11    258.00    5.68   False
  109.138     16016.89     16016.89   219.18    252.00    5.61   False
  109.188     15958.42     15958.42   219.26    255.00    5.65   False
  109.238     16051.83     16051.83   219.34    254.00    5.63   False
  109.288     16284.25     16284.25   219.41    253.00    5.62   False
  109.338     16652.43     16652.43   219.49    254.00    5.63   False
  109.388     17159.91     17159.91   219.57    252.00    5.61   False
  109.438     17816.06     17816.06   219.64    257.00    5.67   False
  109.488     18636.16     18636.16   219.72    250.00    5.59   False
  109.538     19642.39     19642.39   219.80    255.00    5.65   False
  109.588     20865.87     20865.87   219.87    251.00    5.60   False
  109.638     22350.54     22350.54   219.95    254.00    5.63   False
  109.688     24160.29     24160.29   220.03    260.00    5.70   False
  109.738     26391.37     26391.37   220.10    249.00    5.58   False
  109.788     29191.96     29191.96   220.18    253.00    5.62   False
  109.838     32789.46     32789.46   220.26    254.00    5.63   False
  109.888     37522.33     37522.33   220.33    259.00    5.69   False
  109.938     43870.45     43870.45   220.41    268.00    5.79   False
  109.988     52478.44     52478.44   220.49    270.00    5.81   False
  110.038     64171.18     64171.18   220.56    284.00    5.96   False
  110.088     79954.37     79954.37   220.64    305.00    6.17   False
  110.138    100942.47    100942.47   220.72    322.00    6.34   False
  110.188    128071.28    128071.28   220.63    364.00    6.75   False
  110.238    161596.82    161596.82   220.54    417.00    7.22   False
  110.288    201169.14    201169.14   220.44    470.00    7.66   False
  110.338    247135.23    247135.23   220.35    573.00    8.46   False
  110.388    300413.19    300413.19   220.26    678.00    9.21   False
  110.438    358587.21    358587.21   220.17    771.00    9.82   False
  110.488    411436.91    411436.91   220.08    847.00   10.29   False
  110.538    441526.87    441526.87   219.99    854.00   10.33   False
  110.588    434941.20    434941.20   219.90    794.00    9.96   False
  110.638    394231.64    394231.64   219.81    720.00    9.49   False
  110.688    336381.88    336381.88   219.72    611.00    8.74   False
  110.738    279287.91    279287.91   219.63    520.00    8.06   False
  110.788    233786.75    233786.75   219.53    463.00    7.61   False
  110.838    204004.18    204004.18   219.44    412.00    7.18   False
  110.888    189599.89    189599.89   219.35    399.00    7.06   False
  110.938    186928.07    186928.07   219.26    416.00    7.21   False
  110.988    189193.51    189193.51   219.17    428.00    7.31   False
  111.038    187443.82    187443.82   219.08    432.00    7.35   False
  111.088    175253.29    175253.29   218.99    420.00    7.25   False
  111.138    153622.94    153622.94   218.90    402.00    7.09   False
  111.188    128428.22    128428.22   218.81    364.00    6.75   False
  111.238    104791.64    104791.64   218.72    348.00    6.60   False
  111.288     85338.00     85338.00   218.62    334.00    6.46   False
  111.338     70939.63     70939.63   218.53    321.00    6.33   False
  111.388     61528.16     61528.16   218.44    330.00    6.42   False
  111.438     56545.66     56545.66   218.35    342.00    6.54   False
  111.488     55174.64     55174.64   218.26    380.00    6.89   False
  111.538     56393.70     56393.70   218.17    385.00    6.94   False
  111.588     58834.64     58834.64   218.08    420.00    7.25   False
  111.638     60598.08     60598.08   217.99    441.00    7.42   False
  111.688     59722.09     59722.09   217.90    465.00    7.62   False
  111.738     55588.76     55588.76   217.81    444.00    7.45   False
  111.788     49396.32     49396.32   217.71    406.00    7.12   False
  111.838     42823.24     42823.24   217.62    383.00    6.92   False
  111.888     36957.34     36957.34   217.53    345.00    6.57   False
  111.938     32257.24     32257.24   217.44    332.00    6.44   False
  111.988     28815.54     28815.54   217.35    321.00    6.33   False
  112.038     26552.62     26552.62   217.26    308.00    6.20   False
  112.088     25339.20     25339.20   217.17    292.00    6.04   False
  112.138     25080.83     25080.83   217.08    303.00    6.15   False
  112.188     25768.51     25768.51   216.99    314.00    6.26   False
  112.238     27489.54     27489.54   216.90    333.00    6.45   False
  112.288     30395.86     30395.86   216.80    379.00    6.88   False
  112.338     34632.65     34632.65   216.71    438.00    7.40   False
  112.388     40230.89     40230.89   216.62    505.00    7.95   False
  112.438     46948.56     46948.56   216.53    594.00    8.62   False
  112.488     54017.37     54017.37   216.44    659.00    9.08   False
  112.538     59889.96     59889.96   216.35    717.00    9.47   False
  112.588     62628.33     62628.33   216.26    738.00    9.60   False
  112.638     61434.71     61434.71   216.17    710.00    9.42   False
  112.688     57558.76     57558.76   216.08    642.00    8.96   False
  112.738     53074.10     53074.10   215.99    547.00    8.27   False
  112.788     49540.45     49540.45   215.89    492.00    7.84   False
  112.838     47857.82     47857.82   215.80    421.00    7.25   False
  112.888     48621.06     48621.06   215.71    386.00    6.95   False
  112.938     52448.70     52448.70   215.62    344.00    6.56   False
  112.988     60218.94     60218.94   215.53    337.00    6.49   False
  113.038     73197.82     73197.82   215.44    350.00    6.61   False
  113.088     92990.99     92990.99   215.35    364.00    6.75   False
  113.138    121246.76    121246.76   215.26    415.00    7.20   False
  113.188    159076.57    159076.57   215.17    506.00    7.95   False
  113.238    206143.38    206143.38   215.08    586.00    8.56   False
  113.288    259197.61    259197.61   214.98    674.00    9.18   False
  113.338    309950.96    309950.96   214.89    750.00    9.68   False
  113.388    344337.08    344337.08   214.80    787.00    9.92   False
  113.438    348573.42    348573.42   214.71    753.00    9.70   False
  113.488    320677.31    320677.31   214.62    682.00    9.23   False
  113.538    272456.78    272456.78   214.53    597.00    8.64   False
  113.588    218818.46    218818.46   214.44    499.00    7.90   False
  113.638    169541.43    169541.43   214.35    417.00    7.22   False
  113.688    128854.48    128854.48   214.26    362.00    6.73   False
  113.738     97583.05     97583.05   214.17    340.00    6.52   False
  113.788     74801.11     74801.11   214.07    302.00    6.14   False
  113.838     58830.88     58830.88   213.98    286.00    5.98   False
  113.888     47873.77     47873.77   213.89    280.00    5.92   False
  113.938     40376.35     40376.35   213.80    283.00    5.95   False
  113.988     35174.17     35174.17   213.71    276.00    5.87   False
  114.038     31480.29     31480.29   213.62    282.00    5.94   False
  114.088     28798.17     28798.17   213.53    284.00    5.96   False
  114.138     26820.07     26820.07   213.44    295.00    6.49   False
  114.188     25341.75     25341.75   213.35    310.00    6.65   False
  114.238     24207.54     24207.54   213.26    319.00    6.75   False
  114.288     23302.79     23302.79   213.16    321.00    6.77   False
  114.338     22585.41     22585.41   213.07    304.00    6.59   False
  114.388     22088.94     22088.94   212.98    298.00    6.52   False
  114.438     21881.69     21881.69   212.89    293.00    6.47   False
  114.488     22046.68     22046.68   212.80    283.00    6.36   False
  114.538     22699.86     22699.86   212.71    277.00    6.29   False
  114.588     24022.63     24022.63   212.62    269.00    6.20   False
  114.638     26291.45     26291.45   212.53    265.00    6.15   False
  114.688     29889.19     29889.19   212.44    277.00    6.29   False
  114.738     35278.12     35278.12   212.35    283.00    6.36   False
  114.788     42916.46     42916.46   212.25    283.00    6.36   False
  114.838     53110.62     53110.62   212.16    293.00    6.47   False
  114.888     65791.36     65791.36   212.07    303.00    6.58   False
  114.938     80155.13     80155.13   211.98    320.00    6.76   False
  114.988     94107.38     94107.38   211.89    316.00    6.72   False
  115.038    103940.83    103940.83   211.80    331.00    6.88   False
  115.088    105760.78    105760.78   211.71    346.00    7.03   False
  115.138     98768.78     98768.78   211.62    327.00    6.83   False
  115.188     86104.48     86104.48   211.53    328.00    6.85   False
  115.238     71846.57     71846.57   211.43    306.00    6.61   False
  115.288     58681.15     58681.15   211.34    291.00    6.45   False
  115.338     47799.30     47799.30   211.25    286.00    6.39   False
  115.388     39480.95     39480.95   211.16    278.00    6.30   False
  115.438     33530.19     33530.19   211.07    273.00    6.25   False
  115.488     29535.26     29535.26   210.98    267.00    6.18   False
  115.538     27035.47     27035.47   210.89    272.00    6.23   False
  115.588     25623.64     25623.64   210.80    257.00    6.06   False
  115.638     24992.43     24992.43   210.71    260.00    6.09   False
  115.688     24938.99     24938.99   210.62    265.00    6.15   False
  115.738     25347.75     25347.75   210.52    264.00    6.14   False
  115.788     26167.83     26167.83   210.43    272.00    6.23   False
  115.838     27395.45     27395.45   210.34    270.00    6.21   False
  115.888     29065.34     29065.34   210.25    268.00    6.19   False
  115.938     31253.02     31253.02   210.16    269.00    6.20   False
  115.988     34090.52     34090.52   210.07    287.00    6.40   False
  116.038     37800.61     37800.61   209.98    292.00    6.46   False
  116.088     42755.62     42755.62   209.89    295.00    6.49   False
  116.138     49563.05     49563.05   209.80    317.00    6.73   False
  116.188     59165.30     59165.30   209.71    335.00    6.92   False
  116.238     72914.71     72914.71   209.61    364.00    7.21   False
  116.288     92554.79     92554.79   209.52    410.00    7.65   False
  116.338    120025.35    120025.35   209.43    477.00    8.25   False
  116.388    157034.47    157034.47   209.34    556.00    8.91   False
  116.438    204397.94    204397.94   209.25    642.00    9.58   False
  116.488    261126.19    261126.19   209.16    755.00   10.39   False
  116.538    322962.48    322962.48   209.07    864.00   11.11   False
  116.588    380165.01    380165.01   208.98    946.00   11.63   False
  116.638    416977.71    416977.71   208.89    970.00   11.77   False
  116.688    418902.66    418902.66   208.80    941.00   11.59   False
  116.738    385397.02    385397.02   208.70    870.00   11.15   False
  116.788    330586.36    330586.36   208.61    759.00   10.41   False
  116.838    270822.17    270822.17   208.52    647.00    9.61   False
  116.888    216632.13    216632.13   208.43    540.00    8.78   False
  116.938    172867.96    172867.96   208.34    468.00    8.18   False
  116.988    141015.33    141015.33   208.25    418.00    7.73   False
  117.038    120827.49    120827.49   208.16    379.00    7.36   False
  117.088    111238.80    111238.80   208.07    381.00    7.38   False
  117.138    110852.38    110852.38   207.98    405.00    7.61   False
  117.188    118094.76    118094.76   207.89    446.00    7.98   False
  117.238    131022.23    131022.23   207.79    476.00    8.25   False
  117.288    146758.82    146758.82   207.70    523.00    8.64   False
  117.338    160868.40    160868.40   207.61    561.00    8.95   False
  117.388    167876.69    167876.69   207.52    555.00    8.90   False
  117.438    163978.58    163978.58   207.43    529.00    8.69   False
  117.488    149711.57    149711.57   207.34    485.00    8.32   False
  117.538    129277.32    129277.32   207.25    436.00    7.89   False
  117.588    107448.77    107448.77   207.16    398.00    7.54   False
  117.638     87432.75     87432.75   207.07    355.00    7.12   False
  117.688     70697.05     70697.05   206.98    322.00    6.78   False
  117.738     57573.72     57573.72   206.88    304.00    6.59   False
  117.788     47784.70     47784.70   206.79    285.00    6.38   False
  117.838     40775.01     40775.01   206.70    270.00    6.21   False
  117.888     35924.39     35924.39   206.61    278.00    6.30   False
  117.938     32677.42     32677.42   206.52    260.00    6.09   False
  117.988     30608.19     30608.19   206.43    268.00    6.19   False
  118.038     29438.19     29438.19   206.34    264.00    6.14   False
  118.088     29030.74     29030.74   206.25    265.00    6.15   False
  118.138     29382.92     29382.92   206.16    263.00    6.13   False
  118.188     30625.88     30625.88   206.07    267.00    6.18   False
  118.238     33032.06     33032.06   205.97    286.00    6.39   False
  118.288     37015.14     37015.14   205.88    293.00    6.47   False
  118.338     43100.61     43100.61   205.79    291.00    6.45   False
  118.388     51845.71     51845.71   205.70    319.00    6.75   False
  118.438     63697.80     63697.80   205.61    366.00    7.23   False
  118.488     78785.28     78785.28   205.52    411.00    7.66   False
  118.538     96607.04     96607.04   205.43    461.00    8.12   False
  118.588    115534.52    115534.52   205.34    489.00    8.36   False
  118.638    132203.52    132203.52   205.25    521.00    8.63   False
  118.688    141734.30    141734.30   205.16    555.00    8.90   False
  118.738    140310.46    140310.46   205.06    550.00    8.86   False
  118.788    128510.27    128510.27   204.97    511.00    8.54   False
  118.838    110734.67    110734.67   204.88    486.00    8.33   False
  118.888     91626.68     91626.68   204.79    436.00    7.89   False
  118.938     74091.47     74091.47   204.70    392.00    7.48   False
  118.988     59424.74     59424.74   204.61    368.00    7.25   False
  119.038     47942.25     47942.25   204.52    330.00    6.87   False
  119.088     39428.87     39428.87   204.43    328.00    6.85   False
  119.138     33410.65     33410.65   204.34    343.00    7.00   False
  119.188     29331.48     29331.48   204.25    371.00    7.28   False
  119.238     26662.22     26662.22   204.15    394.00    7.50   False
  119.288     24948.14     24948.14   204.06    441.00    7.94   False
  119.338     23810.82     23810.82   203.97    468.00    8.18   False
  119.388     22946.70     22946.70   203.88    469.00    8.19   False
  119.438     22164.77     22164.77   203.79    456.00    8.07   False
  119.488     21421.29     21421.29   203.70    416.00    7.71   False
  119.538     20771.10     20771.10   203.61    394.00    7.50   False
  119.588     20282.18     20282.18   203.52    361.00    7.18   False
  119.638     19997.22     19997.22   203.43    330.00    6.87   False
  119.688     19936.60     19936.60   203.34    312.00    6.68   False
  119.738     20109.96     20109.96   203.24    293.00    6.47   False
  119.788     20525.78     20525.78   203.15    285.00    6.38   False
  119.838     21199.81     21199.81   203.06    286.00    6.39   False
  119.888     22165.22     22165.22   202.97    275.00    6.27   False
  119.938     23486.10     23486.10   202.88    274.00    6.26   False
  119.988     25275.78     25275.78   202.79    281.00    6.34   False
  120.038     27719.04     27719.04   202.70    279.00    6.31   False
  120.088     31093.37     31093.37   202.61    298.00    6.52   False
  120.138     35778.68     35778.68   202.52    312.00    7.21   False
  120.188     42240.70     42240.70   202.43    331.00    7.43   False
  120.238     50973.71     50973.71   202.33    375.00    7.91   False
  120.288     62395.78     62395.78   202.24    406.00    8.23   False
  120.338     76694.59     76694.59   202.15    452.00    8.68   False
  120.388     93606.20     93606.20   202.06    506.00    9.18   False
  120.438    112069.60    112069.60   201.97    546.00    9.54   False
  120.488    129756.37    129756.37   201.88    568.00    9.73   False
  120.538    142964.03    142964.03   201.79    589.00    9.91   False
  120.588    148063.19    148063.19   201.70    588.00    9.90   False
  120.638    144338.23    144338.23   201.61    537.00    9.46   False
  120.688    134890.01    134890.01   201.52    498.00    9.11   False
  120.738    124284.57    124284.57   201.42    463.00    8.78   False
  120.788    116235.51    116235.51   201.33    402.00    8.19   False
  120.838    113108.55    113108.55   201.24    386.00    8.02   False
  120.888    116262.91    116262.91   201.15    361.00    7.76   False
  120.938    126338.46    126338.46   201.06    350.00    7.64   False
  120.988    143320.40    143320.40   200.97    330.00    7.42   False
  121.038    166392.86    166392.86   200.88    338.00    7.51   False
  121.088    193535.62    193535.62   200.79    359.00    7.74   False
  121.138    221035.99    221035.99   200.70    364.00    7.79   False
  121.188    243965.20    243965.20   200.60    385.00    8.01   False
  121.238    258878.38    258878.38   200.51    436.00    8.52   False
  121.288    266766.46    266766.46   200.42    474.00    8.89   False
  121.338    272160.94    272160.94   200.33    544.00    9.52   False
  121.388    279421.85    279421.85   200.24    647.00   10.38   False
  121.438    289970.94    289970.94   200.15    695.00   10.76   False
  121.488    301113.04    301113.04   200.06    763.00   11.28   False
  121.538    306316.77    306316.77   199.97    802.00   11.56   False
  121.588    298429.82    298429.82   199.88    812.00   11.63   False
  121.638    275226.04    275226.04   199.79    756.00   11.22   False
  121.688    241280.60    241280.60   199.69    669.00   10.56   False
  121.738    203816.61    203816.61   199.60    606.00   10.05   False
  121.788    168418.13    168418.13   199.51    527.00    9.37   False
  121.838    138071.42    138071.42   199.42    452.00    8.68   False
  121.888    113911.44    113911.44   199.33    409.00    8.26   False
  121.938     96008.53     96008.53   199.24    376.00    7.92   False
  121.988     83850.96     83850.96   199.15    368.00    7.83   False
  122.038     76632.85     76632.85   199.06    391.00    8.07   False
  122.088     73430.61     73430.61   198.97    400.00    8.16   False
  122.138     73277.46     73277.46   198.88    444.00    8.60   False
  122.188     75138.82     75138.82   198.78    481.00    8.95   False
  122.238     77895.35     77895.35   198.69    518.00    9.29   False
  122.288     80600.28     80600.28   198.60    556.00    9.63   False
  122.338     83045.95     83045.95   198.51    577.00    9.81   False
  122.388     85973.67     85973.67   198.42    575.00    9.79   False
  122.438     90490.35     90490.35   198.33    557.00    9.63   False
  122.488     97314.81     97314.81   198.24    552.00    9.59   False
  122.538    106367.12    106367.12   198.15    562.00    9.68   False
  122.588    116526.47    116526.47   198.06    592.00    9.93   False
  122.638    125430.01    125430.01   197.97    596.00    9.97   False
  122.688    129823.20    129823.20   197.87    583.00    9.86   False
  122.738    127179.38    127179.38   197.78    552.00    9.59   False
  122.788    117609.36    117609.36   197.69    512.00    9.24   False
  122.838    103672.76    103672.76   197.60    482.00    8.96   False
  122.888     88390.68     88390.68   197.51    439.00    8.55   False
  122.938     73880.42     73880.42   197.42    385.00    8.01   False
  122.988     61229.74     61229.74   197.33    342.00    7.55   False
  123.038     50827.03     50827.03   197.24    316.00    7.26   False
  123.088     42651.45     42651.45   197.15    300.00    7.07   False
  123.138     36457.43     36457.43   197.06    287.00    6.92   False
  123.188     31896.86     31896.86   196.96    279.00    6.82   False
  123.238     28604.67     28604.67   196.87    267.00    6.67   False
  123.288     26253.60     26253.60   196.78    269.00    6.70   False
  123.338     24580.88     24580.88   196.69    269.00    6.70   False
  123.388     23392.87     23392.87   196.60    271.00    6.72   False
  123.438     22556.32     22556.32   196.51    261.00    6.60   False
  123.488     21984.38     21984.38   196.42    261.00    6.60   False
  123.538     21622.78     21622.78   196.33    265.00    6.65   False
  123.588     21438.81     21438.81   196.24    252.00    6.48   False
  123.638     21413.83     21413.83   196.15    260.00    6.58   False
  123.688     21538.48     21538.48   196.05    263.00    6.62   False
  123.738     21810.06     21810.06   195.96    265.00    6.65   False
  123.788     22231.14     22231.14   195.87    260.00    6.58   False
  123.838     22808.94     22808.94   195.78    274.00    6.76   False
  123.888     23555.18     23555.18   195.69    267.00    6.67   False
  123.938     24486.42     24486.42   195.60    271.00    6.72   False
  123.988     25624.87     25624.87   195.51    274.00    6.76   False
  124.038     27000.09     27000.09   195.42    269.00    6.70   False
  124.088     28652.35     28652.35   195.33    264.00    6.63   False
  124.138     30639.47     30639.47   195.24    277.00    6.79   False
  124.188     33051.04     33051.04   195.14    272.00    6.73   False
  124.238     36033.15     36033.15   195.05    277.00    6.79   False
  124.288     39821.46     39821.46   194.96    282.00    6.86   False
  124.338     44777.41     44777.41   194.87    290.00    6.95   False
  124.388     51423.70     51423.70   194.78    293.00    6.99   False
  124.438     60470.71     60470.71   194.69    294.00    7.00   False
  124.488     72813.82     72813.82   194.60    300.00    7.07   False
  124.538     89477.45     89477.45   194.51    325.00    7.36   False
  124.588    111488.87    111488.87   194.42    348.00    7.62   False
  124.638    139676.62    139676.62   194.33    382.00    7.98   False
  124.688    174389.92    174389.92   194.23    412.00    8.29   False
  124.738    215104.87    215104.87   194.14    466.00    8.81   False
  124.788    259831.25    259831.25   194.05    513.00    9.25   False
  124.838    304321.71    304321.71   193.96    562.00    9.68   False
  124.888    341701.25    341701.25   193.87    585.00    9.87   False
  124.938    364133.44    364133.44   193.78    608.00   10.07   False
  124.988    367093.24    367093.24   193.69    619.00   10.16   False
  125.038    352414.70    352414.70   193.60    594.00    9.95   False
  125.088    326101.23    326101.23   193.51    567.00    9.72   False
  125.138    293963.76    293963.76   193.42    526.00    9.36   False
  125.188    260007.64    260007.64   193.32    518.00    9.29   False
  125.238    227229.63    227229.63   193.23    501.00    9.14   False
  125.288    198080.40    198080.40   193.14    480.00    8.94   False
  125.338    174029.05    174029.05   193.05    470.00    8.85   False
  125.388    155293.74    155293.74   192.96    465.00    8.80   False
  125.438    141170.89    141170.89   192.87    469.00    8.84   False
  125.488    130585.34    130585.34   192.78    458.00    8.74   False
  125.538    122371.38    122371.38   192.69    438.00    8.54   False
  125.588    115302.25    115302.25   192.60    448.00    8.64   False
  125.638    108334.37    108334.37   192.51    470.00    8.85   False
  125.688    101048.01    101048.01   192.41    470.00    8.85   False
  125.738     93667.24     93667.24   192.32    500.00    9.13   False
  125.788     86574.56     86574.56   192.23    505.00    9.17   False
  125.838     79925.61     79925.61   192.14    519.00    9.30   False
  125.888     73691.56     73691.56   192.05    517.00    9.28   False
  125.938     67908.25     67908.25   191.96    517.00    9.28   False
  125.988     62771.83     62771.83   191.87    502.00    9.15   False
  126.038     58519.57     58519.57   191.78    460.00    8.76   False
  126.088     55306.55     55306.55   191.69    410.00    8.27   False
  126.138     53190.72     53190.72   191.60    375.00    8.66   False
  126.188     52180.24     52180.24   191.50    347.00    8.33   False
  126.238     52287.23     52287.23   191.41    347.00    8.33   False
  126.288     53573.00     53573.00   191.32    318.00    7.97   False
  126.338     56187.60     56187.60   191.23    310.00    7.87   False
  126.388     60405.72     60405.72   191.14    302.00    7.77   False
  126.438     66654.23     66654.23   191.05    311.00    7.89   False
  126.488     75520.06     75520.06   190.96    326.00    8.07   False
  126.538     87724.08     87724.08   190.87    320.00    8.00   False
  126.588    104048.93    104048.93   190.78    334.00    8.17   False
  126.638    125216.46    125216.46   190.69    374.00    8.65   False
  126.688    151718.52    151718.52   190.59    444.00    9.42   False
  126.738    183600.72    183600.72   190.50    484.00    9.84   False
  126.788    220171.50    220171.50   190.41    561.00   10.59   False
  126.838    259578.65    259578.65   190.32    647.00   11.38   False
  126.888    298294.68    298294.68   190.23    699.00   11.82   False
  126.938    331019.43    331019.43   190.14    747.00   12.22   False
  126.988    352117.27    352117.27   190.05    767.00   12.39   False
  127.038    358840.17    358840.17   189.96    749.00   12.24   False
  127.088    353665.27    353665.27   189.87    723.00   12.03   False
  127.138    342884.84    342884.84   189.78    664.00   11.52   False
  127.188    333059.98    333059.98   189.68    619.00   11.13   False
  127.238    328667.61    328667.61   189.59    578.00   10.75   False
  127.288    331606.74    331606.74   189.50    553.00   10.52   False
  127.338    341623.33    341623.33   189.41    541.00   10.40   False
  127.388    356987.76    356987.76   189.32    530.00   10.30   False
  127.438    374978.40    374978.40   189.23    530.00   10.30   False
  127.488    391852.29    391852.29   189.14    525.00   10.25   False
  127.538    402646.79    402646.79   189.05    517.00   10.17   False
  127.588    401884.50    401884.50   188.96    493.00    9.93   False
  127.638    385972.49    385972.49   188.86    482.00    9.82   False
  127.688    355729.47    355729.47   188.77    456.00    9.55   False
  127.738    316051.80    316051.80   188.68    423.00    9.20   False
  127.788    272987.24    272987.24   188.59    383.00    8.75   False
  127.838    231293.49    231293.49   188.50    380.00    8.72   False
  127.888    193811.33    193811.33   188.41    343.00    8.28   False
  127.938    161856.19    161856.19   188.32    326.00    8.07   False
  127.988    135753.45    135753.45   188.23    314.00    7.92   False
  128.038    115234.48    115234.48   188.14    302.00    7.77   False
  128.088     99706.36     99706.36   188.05    303.00    7.78   False
  128.138     88447.36     88447.36   187.95    290.00    7.62   False
  128.188     80752.40     80752.40   187.86    290.00    7.62   False
  128.238     76033.84     76033.84   187.77    293.00    7.66   False
  128.288     73878.76     73878.76   187.68    277.00    7.44   False
  128.338     74067.08     74067.08   187.59    286.00    7.56   False
  128.388     76557.26     76557.26   187.50    309.00    7.86   False
  128.438     81447.93     81447.93   187.41    327.00    8.09   False
  128.488     88923.06     88923.06   187.32    357.00    8.45   False
  128.538     99187.22     99187.22   187.23    396.00    8.90   False
  128.588    112392.50    112392.50   187.14    468.00    9.67   False
  128.638    128547.95    128547.95   187.04    529.00   10.29   False
  128.688    147389.86    147389.86   186.95    590.00   10.86   False
  128.738    168203.08    168203.08   186.86    649.00   11.39   False
  128.788    189682.03    189682.03   186.77    699.00   11.82   False
  128.838    210110.61    210110.61   186.68    720.00   12.00   False
  128.888    228116.88    228116.88   186.59    705.00   11.87   False
  128.938    243582.60    243582.60   186.50    672.00   11.59   False
  128.988    257666.76    257666.76   186.41    635.00   11.27   False
  129.038    271718.49    271718.49   186.32    604.00   10.99   False
  129.088    286083.77    286083.77   186.23    564.00   10.62   False
  129.138    299648.90    299648.90   186.13    548.00   10.47   False
  129.188    310148.61    310148.61   186.04    537.00   10.36   False
  129.238    314866.43    314866.43   185.95    564.00   10.62   False
  129.288    311447.16    311447.16   185.86    588.00   10.84   False
  129.338    298846.81    298846.81   185.77    611.00   11.05   False
  129.388    278132.86    278132.86   185.68    636.00   11.28   False
  129.438    252261.33    252261.33   185.59    636.00   11.28   False
  129.488    224797.51    224797.51   185.50    606.00   11.01   False
  129.538    198728.50    198728.50   185.41    600.00   10.95   False
  129.588    176056.91    176056.91   185.32    560.00   10.58   False
  129.638    157929.58    157929.58   185.22    512.00   10.12   False
  129.688    144902.51    144902.51   185.13    473.00    9.73   False
  129.738    137169.10    137169.10   185.04    453.00    9.52   False
  129.788    134719.63    134719.63   184.95    428.00    9.25   False
  129.838    137437.76    137437.76   184.86    390.00    8.83   False
  129.888    145158.88    145158.88   184.77    393.00    8.87   False
  129.938    157746.24    157746.24   184.68    401.00    8.96   False
  129.988    175223.05    175223.05   184.59    395.00    8.89   False
  130.038    197861.70    197861.70   184.50    440.00    9.38   False
  130.088    226032.26    226032.26   184.41    479.00    9.79   False
  130.138    259785.08    259785.08   184.31    549.00   10.48   False
  130.188    298345.02    298345.02   184.39    618.00   11.12   False
  130.238    339624.20    339624.20   184.48    675.00   11.62   False
  130.288    379778.39    379778.39   184.56    746.00   12.21   False
  130.338    413093.32    413093.32   184.64    803.00   12.67   False
  130.388    432933.83    432933.83   184.72    805.00   12.69   False
  130.438    434200.47    434200.47   184.80    788.00   12.55   False
  130.488    416026.85    416026.85   184.88    748.00   12.23   False
  130.538    382265.33    382265.33   184.96    671.00   11.58   False
  130.588    339259.08    339259.08   185.04    621.00   11.14   False
  130.638    293091.58    293091.58   185.12    544.00   10.43   False
  130.688    248184.22    248184.22   185.20    460.00    9.59   False
  130.738    207207.64    207207.64   185.28    421.00    9.18   False
  130.788    171502.14    171502.14   185.36    384.00    8.76   False
  130.838    141504.92    141504.92   185.44    343.00    8.28   False
  130.888    117063.38    117063.38   185.52    321.00    8.01   False
  130.938     97660.08     97660.08   185.60    298.00    7.72   False
  130.988     82584.38     82584.38   185.68    278.00    7.46   False
  131.038     71065.14     71065.14   185.76    287.00    7.58   False
  131.088     62366.53     62366.53   185.84    280.00    7.48   False
  131.138     55847.86     55847.86   185.92    268.00    7.32   False
  131.188     50991.98     50991.98   186.00    281.00    7.50   False
  131.238     47410.28     47410.28   186.08    272.00    7.38   False
  131.288     44833.51     44833.51   186.16    287.00    7.58   False
  131.338     43096.50     43096.50   186.24    282.00    7.51   False
  131.388     42122.42     42122.42   186.32    284.00    7.54   False
  131.438     41908.83     41908.83   186.40    300.00    7.75   False
  131.488     42515.32     42515.32   186.48    303.00    7.78   False
  131.538     44050.51     44050.51   186.56    309.00    7.86   False
  131.588     46655.88     46655.88   186.64    322.00    8.03   False
  131.638     50484.80     50484.80   186.72    340.00    8.25   False
  131.688     55677.58     55677.58   186.80    347.00    8.33   False
  131.738     62332.83     62332.83   186.88    370.00    8.60   False
  131.788     70472.67     70472.67   186.96    401.00    8.96   False
  131.838     79995.50     79995.50   187.04    420.00    9.17   False
  131.888     90611.22     90611.22   187.13    451.00    9.50   False
  131.938    101757.18    101757.18   187.21    491.00    9.91   False
  131.988    112514.31    112514.31   187.29    508.00   10.08   False
  132.038    121607.53    121607.53   187.37    530.00   10.30   False
  132.088    127646.91    127646.91   187.45    531.00   10.31   False
  132.138    129668.13    129668.13   187.53    522.00   10.22   False
  132.188    127668.39    127668.39   187.61    484.00   11.00   False
  132.238    122642.16    122642.16   187.69    468.00   10.82   False
  132.288    116066.59    116066.59   187.77    427.00   10.33   False
  132.338    109305.65    109305.65   187.85    379.00    9.73   False
  132.388    103295.16    103295.16   187.93    365.00    9.55   False
  132.438     98488.44     98488.44   188.01    344.00    9.27   False
  132.488     94900.17     94900.17   188.09    321.00    8.96   False
  132.538     92160.04     92160.04   188.17    294.00    8.57   False
  132.588     89597.47     89597.47   188.25    291.00    8.53   False
  132.638     86433.30     86433.30   188.33    284.00    8.43   False
  132.688     82087.35     82087.35   188.41    264.00    8.12   False
  132.738     76435.13     76435.13   188.49    281.00    8.38   False
  132.788     69804.72     69804.72   188.57    261.00    8.08   False
  132.838     62739.07     62739.07   188.65    256.00    8.00   False
  132.888     55748.85     55748.85   188.73    261.00    8.08   False
  132.938     49197.88     49197.88   188.81    266.00    8.15   False
  132.988     43299.55     43299.55   188.89    264.00    8.12   False
  133.038     38153.44     38153.44   188.97    258.00    8.03   False
  133.088     33781.26     33781.26   189.05    262.00    8.09   False
  133.138     30152.74     30152.74   189.13    250.00    7.91   False
  133.188     27204.07     27204.07   189.21    261.00    8.08   False
  133.238     24852.26     24852.26   189.29    257.00    8.02   False
  133.288     23006.90     23006.90   189.37    253.00    7.95   False
  133.338     21579.37     21579.37   189.45    247.00    7.86   False
  133.388     20489.28     20489.28   189.53    259.00    8.05   False
  133.438     19668.16     19668.16   189.61    259.00    8.05   False
  133.488     19060.75     19060.75   189.69    256.00    8.00   False
  133.538     18624.52     18624.52   189.78    253.00    7.95   False
  133.588     18328.22     18328.22   189.86    256.00    8.00   False
  133.638     18149.91     18149.91   189.94    257.00    8.02   False
  133.688     18075.22     18075.22   190.02    261.00    8.08   False
  133.738     18095.66     18095.66   190.10    246.00    7.84   False
  133.788     18207.39     18207.39   190.18    247.00    7.86   False
  133.838     18410.21     18410.21   190.26    250.00    7.91   False
  133.888     18707.10     18707.10   190.34    270.00    8.22   False
  133.938     19104.18     19104.18   190.42    254.00    7.97   False
  133.988     19611.20     19611.20   190.50    245.00    7.83   False
  134.038     20242.71     20242.71   190.58    254.00    7.97   False
  134.088     21020.00     21020.00   190.66    274.00    8.28   False
  134.138     21973.89     21973.89   190.74    272.00    8.25   False
  134.188     23148.81     23148.81   190.82    253.00    7.95   False
  134.238     24607.96     24607.96   190.90    260.00    8.06   False
  134.288     26439.40     26439.40   190.98    272.00    8.25   False
  134.338     28762.47     28762.47   191.06    265.00    8.14   False
  134.388     31733.39     31733.39   191.14    267.00    8.17   False
  134.438     35548.37     35548.37   191.22    276.00    8.31   False
  134.488     40442.36     40442.36   191.30    280.00    8.37   False
  134.538     46681.50     46681.50   191.38    289.00    8.50   False
  134.588     54547.94     54547.94   191.46    318.00    8.92   False
  134.638     64316.23     64316.23   191.54    331.00    9.10   False
  134.688     76221.70     76221.70   191.62    366.00    9.57   False
  134.738     90420.42     90420.42   191.70    386.00    9.82   False
  134.788    106939.70    106939.70   191.78    426.00   10.32   False
  134.838    125614.40    125614.40   191.86    461.00   10.74   False
  134.888    146004.60    146004.60   191.94    495.00   11.12   False
  134.938    167300.75    167300.75   192.02    532.00   11.53   False
  134.988    188259.42    188259.42   192.10    591.00   12.16   False
  135.038    207267.93    207267.93   192.18    627.00   12.52   False
  135.088    222640.98    222640.98   192.26    616.00   12.41   False
  135.138    233095.57    233095.57   192.34    634.00   12.59   False
  135.188    238106.02    238106.02   192.43    668.00   12.92   False
  135.238    237850.61    237850.61   192.51    645.00   12.70   False
  135.288    232833.39    232833.39   192.59    620.00   12.45   False
  135.338    223553.84    223553.84   192.67    607.00   12.32   False
  135.388    210484.37    210484.37   192.75    560.00   11.83   False
  135.438    194282.17    194282.17   192.83    518.00   11.38   False
  135.488    175939.13    175939.13   192.91    470.00   10.84   False
  135.538    156673.26    156673.26   192.99    445.00   10.55   False
  135.588    137658.31    137658.31   193.07    398.00    9.97   False
  135.638    119808.48    119808.48   193.15    376.00    9.70   False
  135.688    103712.86    103712.86   193.23    336.00    9.17   False
  135.738     89677.71     89677.71   193.31    325.00    9.01   False
  135.788     77804.96     77804.96   193.39    301.00    8.67   False
  135.838     68066.03     68066.03   193.47    303.00    8.70   False
  135.888     60359.12     60359.12   193.55    275.00    8.29   False
  135.938     54550.96     54550.96   193.63    273.00    8.26   False
  135.988     50506.37     50506.37   193.71    288.00    8.49   False
  136.038     48107.65     48107.65   193.79    278.00    8.34   False
  136.088     47264.54     47264.54   193.87    274.00    8.28   False
  136.138     47915.22     47915.22   193.95    273.00    8.26   False
  136.188     50019.02     50019.02   194.03    260.00    8.06   False
  136.238     53542.21     53542.21   194.11    268.00    8.19   False
  136.288     58438.60     58438.60   194.19    276.00    8.31   False
  136.338     64626.71     64626.71   194.27    276.00    8.31   False
  136.388     71964.03     71964.03   194.35    294.00    8.57   False
  136.438     80217.19     80217.19   194.43    293.00    8.56   False
  136.488     89026.24     89026.24   194.51    277.00    8.32   False
  136.538     97865.57     97865.57   194.59    292.00    8.54   False
  136.588    106020.00    106020.00   194.67    284.00    8.43   False
  136.638    112620.88    112620.88   194.75    273.00    8.26   False
  136.688    116797.00    116797.00   194.83    291.00    8.53   False
  136.738    117938.15    117938.15   194.91    287.00    8.47   False
  136.788    115945.08    115945.08   194.99    303.00    8.70   False
  136.838    111284.75    111284.75   195.08    306.00    8.75   False
  136.888    104803.86    104803.86   195.16    315.00    8.87   False
  136.938     97443.88     97443.88   195.24    333.00    9.12   False
  136.988     90027.70     90027.70   195.32    367.00    9.58   False
  137.038     83172.43     83172.43   195.40    387.00    9.84   False
  137.088     77288.40     77288.40   195.48    404.00   10.05   False
  137.138     72609.66     72609.66   195.56    440.00   10.49   False
  137.188     69225.11     69225.11   195.64    480.00   10.95   False
  137.238     67100.33     67100.33   195.72    533.00   11.54   False
  137.288     66090.31     66090.31   195.80    601.00   12.26   False
  137.338     65947.07     65947.07   195.88    620.00   12.45   False
  137.388     66331.60     66331.60   195.96    647.00   12.72   False
  137.438     66846.89     66846.89   196.04    663.00   12.87   False
  137.488     67108.89     67108.89   196.12    652.00   12.77   False
  137.538     66848.34     66848.34   196.20    665.00   12.89   False
  137.588     65995.82     65995.82   196.28    630.00   12.55   False
  137.638     64691.13     64691.13   196.36    628.00   12.53   False
  137.688     63208.65     63208.65   196.44    577.00   12.01   False
  137.738     61850.77     61850.77   196.52    520.00   11.40   False
  137.788     60866.22     60866.22   196.60    472.00   10.86   False
  137.838     60411.04     60411.04   196.68    453.00   10.64   False
  137.888     60538.38     60538.38   196.76    413.00   10.16   False
  137.938     61197.98     61197.98   196.84    412.00   10.15   False
  137.988     62235.52     62235.52   196.92    396.00    9.95   False
  138.038     63394.25     63394.25   197.00    361.00   10.97   False
  138.088     64332.68     64332.68   197.08    370.00   11.11   False
  138.138     64677.46     64677.46   197.16    402.00   11.58   False
  138.188     64115.74     64115.74   197.24    389.00   11.39   False
  138.238     62494.73     62494.73   197.32    423.00   11.87   False
  138.288     59868.60     59868.60   197.40    452.00   12.27   False
  138.338     56459.98     56459.98   197.48    469.00   12.50   False
  138.388     52566.05     52566.05   197.56    498.00   12.88   False
  138.438     48468.94     48468.94   197.64    535.00   13.35   False
  138.488     44385.98     44385.98   197.73    538.00   13.39   False
  138.538     40458.58     40458.58   197.81    564.00   13.71   False
  138.588     36763.78     36763.78   197.89    572.00   13.81   False
  138.638     33334.90     33334.90   197.97    585.00   13.96   False
  138.688     30183.18     30183.18   198.05    574.00   13.83   False
  138.738     27313.56     27313.56   198.13    543.00   13.45   False
  138.788     24730.95     24730.95   198.21    495.00   12.85   False
  138.838     22438.09     22438.09   198.29    484.00   12.70   False
  138.888     20431.22     20431.22   198.37    460.00   12.38   False
  138.938     18697.91     18697.91   198.45    428.00   11.94   False
  138.988     17218.23     17218.23   198.53    375.00   11.18   False
  139.038     15967.70     15967.70   198.61    341.00   10.66   False
  139.088     14920.34     14920.34   198.69    340.00   10.65   False
  139.138     14050.98     14050.98   198.77    312.00   10.20   False
  139.188     13336.80     13336.80   198.85    309.00   10.15   False
  139.238     12758.06     12758.06   198.93    288.00    9.80   False
  139.288     12298.50     12298.50   199.01    271.00    9.50   False
  139.338     11945.50     11945.50   199.09    273.00    9.54   False
  139.388     11690.15     11690.15   199.17    267.00    9.43   False
  139.438     11527.29     11527.29   199.25    255.00    9.22   False
  139.488     11455.50     11455.50   199.33    266.00    9.42   False
  139.538     11477.08     11477.08   199.41    261.00    9.33   False
  139.588     11597.75     11597.75   199.49    269.00    9.47   False
  139.638     11826.32     11826.32   199.57    257.00    9.26   False
  139.688     12173.95     12173.95   199.65    249.00    9.11   False
  139.738     12653.23     12653.23   199.73    245.00    9.04   False
  139.788     13276.93     13276.93   199.81    259.00    9.29   False
  139.838     14056.55     14056.55   199.89    258.00    9.27   False
  139.888     15000.83     15000.83   199.97    259.00    9.29   False
  139.938     16114.08     16114.08   200.05    268.00    9.45   False
  139.988     17394.72     17394.72   200.13    279.00    9.64   False
  140.038     18833.63     18833.63   200.21    256.00    9.24   False
  140.088     20412.26     20412.26   200.29    259.00    9.29   False
  140.138     22100.39     22100.39   200.38    287.00    9.78   False
  140.188     23853.60     23853.60   200.46    269.00    9.47   False
  140.238     25612.13     25612.13   200.54    281.00    9.68   False
  140.288     27303.76     27303.76   200.62    268.00    9.45   False
  140.338     28854.83     28854.83   200.70    277.00    9.61   False
  140.388     30210.15     30210.15   200.78    278.00    9.63   False
  140.438     31355.69     31355.69   200.86    287.00    9.78   False
  140.488     32331.47     32331.47   200.94    277.00    9.61   False
  140.538     33225.05     33225.05   201.02    285.00    9.75   False
  140.588     34147.89     34147.89   201.10    284.00    9.73   False
  140.638     35207.10     35207.10   201.18    278.00    9.63   False
  140.688     36483.54     36483.54   201.26    288.00    9.80   False
  140.738     38019.59     38019.59   201.34    279.00    9.64   False
  140.788     39813.73     39813.73   201.42    287.00    9.78   False
  140.838     41817.76     41817.76   201.50    289.00    9.81   False
  140.888     43934.28     43934.28   201.58    308.00   10.13   False
  140.938     46015.42     46015.42   201.66    308.00   10.13   False
  140.988     47867.63     47867.63   201.74    288.00    9.80   False
  141.038     49270.06     49270.06   201.82    302.00   10.03   False
  141.088     50012.05     50012.05   201.90    295.00    9.92   False
  141.138     49944.13     49944.13   201.98    301.00   10.02   False
  141.188     49022.09     49022.09   202.06    303.00   10.05   False
  141.238     47319.85     47319.85   202.14    294.00    9.90   False
  141.288     45003.68     45003.68   202.22    287.00    9.78   False
  141.338     42284.06     42284.06   202.30    279.00    9.64   False
  141.388     39370.30     39370.30   202.38    279.00    9.64   False
  141.438     36442.85     36442.85   202.46    276.00    9.59   False
  141.488     33643.56     33643.56   202.54    275.00    9.57   False
  141.538     31076.98     31076.98   202.62    264.00    9.38   False
  141.588     28815.69     28815.69   202.70    274.00    9.56   False
  141.638     26905.98     26905.98   202.78    269.00    9.47   False
  141.688     25372.36     25372.36   202.86    269.00    9.47   False
  141.738     24220.99     24220.99   202.94    268.00    9.45   False
  141.788     23442.34     23442.34   203.03    261.00    9.33   False
  141.838     23013.24     23013.24   203.11    256.00    9.24   False
  141.888     22898.57     22898.57   203.19    284.00    9.73   False
  141.938     23052.39     23052.39   203.27    279.00    9.64   False
  141.988     23418.53     23418.53   203.35    280.00    9.66   False
  142.038     23930.91     23930.91   203.43    296.00    9.93   False
  142.088     24514.34     24514.34   203.51    297.00    9.95   False
  142.138     25087.67     25087.67   203.59    296.00    9.93   False
  142.188     25570.97     25570.97   203.67    308.00   10.13   False
  142.238     25897.46     25897.46   203.75    301.00   10.02   False
  142.288     26027.59     26027.59   203.83    300.00   10.00   False
  142.338     25959.13     25959.13   203.91    297.00    9.95   False
  142.388     25728.09     25728.09   203.99    300.00   10.00   False
  142.438     25400.13     25400.13   204.07    289.00    9.81   False
  142.488     25057.32     25057.32   204.15    290.00    9.83   False
  142.538     24786.55     24786.55   204.23    274.00    9.56   False
  142.588     24672.52     24672.52   204.31    275.00    9.57   False
  142.638     24795.06     24795.06   204.39    264.00    9.38   False
  142.688     25228.83     25228.83   204.47    262.00    9.35   False
  142.738     26043.44     26043.44   204.55    249.00    9.11   False
  142.788     27303.00     27303.00   204.63    251.00    9.15   False
  142.838     29064.56     29064.56   204.71    248.00    9.09   False
  142.888     31375.63     31375.63   204.79    252.00    9.17   False
  142.938     34270.74     34270.74   204.87    249.00    9.11   False
  142.988     37767.60     37767.60   204.95    249.00    9.11   False
  143.038     41862.93     41862.93   205.03    262.00    9.35   False
  143.088     46528.05     46528.05   205.11    251.00    9.15   False
  143.138     51704.31     51704.31   205.19    239.00    8.93   False
  143.188     57297.87     57297.87   205.27    263.00    9.36   False
  143.238     63173.68     63173.68   205.35    265.00    9.40   False
  143.288     69148.77     69148.77   205.43    240.00    8.94   False
  143.338     74986.55     74986.55   205.51    236.00    8.87   False
  143.388     80396.50     80396.50   205.59    250.00    9.13   False
  143.438     85046.54     85046.54   205.68    248.00    9.09   False
  143.488     88595.88     88595.88   205.76    248.00    9.09   False
  143.538     90749.47     90749.47   205.84    254.00    9.20   False
  143.588     91321.82     91321.82   205.92    262.00    9.35   False
  143.638     90284.43     90284.43   206.00    252.00    9.17   False
  143.688     87773.11     87773.11   206.08    246.00    9.06   False
  143.738     84050.96     84050.96   206.16    250.00    9.13   False
  143.788     79446.29     79446.29   206.24    251.00    9.15   False
  143.838     74292.70     74292.70   206.32    247.00    9.07   False
  143.888     68888.81     68888.81   206.40    248.00    9.09   False
  143.938     63480.52     63480.52   206.48    254.00    9.20   False
  143.988     58259.21     58259.21   206.56    236.00    8.87   False
  144.038     53367.94     53367.94   206.64    251.00    9.15   False
  144.088     48909.99     48909.99   206.72    247.00    9.07   False
  144.138     44956.98     44956.98   206.80    254.00    9.20   False
  144.188     41555.76     41555.76   206.88    248.00    9.09   False
  144.238     38734.10     38734.10   206.96    259.00   11.38   False
  144.288     36505.35     36505.35   207.04    259.00   11.38   False
  144.338     34872.41     34872.41   207.12    274.00   11.70   False
  144.388     33831.00     33831.00   207.20    263.00   11.47   False
  144.438     33372.26     33372.26   207.28    287.00   11.98   False
  144.488     33484.70     33484.70   207.36    283.00   11.90   False
  144.538     34155.52     34155.52   207.44    281.00   11.85   False
  144.588     35371.30     35371.30   207.52    296.00   12.17   False
  144.638     37118.22     37118.22   207.60    292.00   12.08   False
  144.688     39381.89     39381.89   207.68    323.00   12.71   False
  144.738     42146.81     42146.81   207.76    330.00   12.85   False
  144.788     45395.49     45395.49   207.84    339.00   13.02   False
  144.838     49107.03     49107.03   207.92    358.00   13.38   False
  144.888     53255.16     53255.16   208.00    349.00   13.21   False
  144.938     57805.52     57805.52   208.08    365.00   13.51   False
  144.988     62712.92     62712.92   208.16    399.00   14.12   False
  145.038     67919.49     67919.49   208.24    406.00   14.25   False
  145.088     73356.27     73356.27   208.33    428.00   14.63   False
  145.138     78950.59     78950.59   208.41    413.00   14.37   False
  145.188     84640.42     84640.42   208.49    439.00   14.82   False
  145.238     90393.25     90393.25   208.57    418.00   14.46   False
  145.288     96222.07     96222.07   208.65    425.00   14.58   False
  145.338    102189.91    102189.91   208.73    411.00   14.34   False
  145.388    108397.93    108397.93   208.81    417.00   14.44   False
  145.438    114959.91    114959.91   208.89    391.00   13.98   False
  145.488    121971.51    121971.51   208.97    393.00   14.02   False
  145.538    129482.52    129482.52   209.05    386.00   13.89   False
  145.588    137476.31    137476.31   209.13    359.00   13.40   False
  145.638    145856.49    145856.49   209.21    381.00   13.80   False
  145.688    154439.38    154439.38   209.29    363.00   13.47   False
  145.738    162952.11    162952.11   209.37    364.00   13.49   False
  145.788    171039.34    171039.34   209.45    375.00   13.69   False
  145.838    178283.65    178283.65   209.53    379.00   13.77   False
  145.888    184244.06    184244.06   209.61    392.00   14.00   False
  145.938    188510.93    188510.93   209.69    402.00   14.18   False
  145.988    190766.64    190766.64   209.77    436.00   14.76   False
  146.038    190834.34    190834.34   209.85    451.00   15.02   False
  146.088    188700.00    188700.00   209.93    463.00   15.22   False
  146.138    184504.26    184504.26   210.01    452.00   15.03   False
  146.188    178511.81    178511.81   210.09    449.00   14.98   False
  146.238    171070.23    171070.23   210.17    479.00   15.48   False
  146.288    162566.97    162566.97   210.25    485.00   15.57   False
  146.338    153389.98    153389.98   210.33    484.00   15.56   False
  146.388    143895.84    143895.84   210.41    472.00   15.36   False
  146.438    134388.30    134388.30   210.49    508.00   15.94   False
  146.488    125107.73    125107.73   210.57    518.00   16.09   False
  146.538    116230.15    116230.15   210.65    523.00   16.17   False
  146.588    107872.83    107872.83   210.73    561.00   16.75   False
  146.638    100103.78    100103.78   210.81    559.00   16.72   False
  146.688     92952.95     92952.95   210.89    573.00   16.93   False
  146.738     86423.49     86423.49   210.97    545.00   16.51   False
  146.788     80502.05     80502.05   211.06    561.00   16.75   False
  146.838     75167.38     75167.38   211.14    568.00   16.85   False
  146.888     70396.70     70396.70   211.22    573.00   16.93   False
  146.938     66170.13     66170.13   211.30    562.00   16.76   False
  146.988     62473.21     62473.21   211.38    573.00   16.93   False
  147.038     59298.39     59298.39   211.46    565.00   16.81   False
  147.088     56645.50     56645.50   211.54    499.00   15.80   False
  147.138     54521.31     54521.31   211.62    496.00   15.75   False
  147.188     52937.98     52937.98   211.70    488.00   15.62   False
  147.238     51910.68     51910.68   211.78    449.00   14.98   False
  147.288     51454.78     51454.78   211.86    442.00   14.87   False
  147.338     51582.95     51582.95   211.94    391.00   13.98   False
  147.388     52302.69     52302.69   212.02    387.00   13.91   False
  147.438     53614.02     53614.02   212.10    390.00   13.96   False
  147.488     55507.47     55507.47   212.18    359.00   13.40   False
  147.538     57962.12     57962.12   212.26    338.00   13.00   False
  147.588     60943.73     60943.73   212.34    321.00   12.67   False
  147.638     64402.72     64402.72   212.42    322.00   12.69   False
  147.688     68272.30     68272.30   212.50    327.00   12.79   False
  147.738     72466.44     72466.44   212.58    338.00   13.00   False
  147.788     76878.17     76878.17   212.66    306.00   12.37   False
  147.838     81378.59     81378.59   212.74    290.00   12.04   False
  147.888     85817.41     85817.41   212.82    320.00   12.65   False
  147.938     90026.24     90026.24   212.90    308.00   12.41   False
  147.988     93825.66     93825.66   212.98    300.00   12.25   False
  148.038     97036.77     97036.77   213.06    307.00   12.39   False
  148.088     99496.68     99496.68   213.14    306.00   12.37   False
  148.138    101076.18    101076.18   213.22    314.00   12.53   False
  148.188    101696.56    101696.56   213.30    318.00   12.61   False
  148.238    101341.72    101341.72   213.38    298.00   12.21   False
  148.288    100061.92    100061.92   213.46    313.00   12.51   False
  148.338     97967.24     97967.24   213.54    303.00   12.31   False
  148.388     95212.00     95212.00   213.62    302.00   12.29   False
  148.438     91974.13     91974.13   213.71    333.00   12.90   False
  148.488     88434.68     88434.68   213.79    285.00   11.94   False
  148.538     84761.64     84761.64   213.87    312.00   12.49   False
  148.588     81099.58     81099.58   213.95    312.00   12.49   False
  148.638     77564.88     77564.88   214.03    285.00   11.94   False
  148.688     74244.73     74244.73   214.11    290.00   12.04   False
  148.738     71198.41     71198.41   214.19    288.00   12.00   False
  148.788     68459.37     68459.37   214.27    294.00   12.12   False
  148.838     66037.45     66037.45   214.35    314.00   12.53   False
  148.888     63921.03     63921.03   214.43    300.00   12.25   False
  148.938     62079.05     62079.05   214.51    306.00   12.37   False
  148.988     60463.47     60463.47   214.59    293.00   12.10   False
  149.038     59012.69     59012.69   214.67    299.00   12.23   False
  149.088     57656.49     57656.49   214.75    328.00   12.81   False
  149.138     56322.68     56322.68   214.83    325.00   12.75   False
  149.188     54945.15     54945.15   214.91    328.00   12.81   False
  149.238     53471.90     53471.90   214.99    317.00   12.59   False
  149.288     51871.11     51871.11   215.07    292.00   12.08   False
  149.338     50133.77     50133.77   215.15    321.00   12.67   False
  149.388     48272.03     48272.03   215.23    291.00   12.06   False
  149.438     46314.32     46314.32   215.31    302.00   12.29   False
  149.488     44298.88     44298.88   215.39    291.00   12.06   False
  149.538     42267.68     42267.68   215.47    297.00   12.19   False
  149.588     40261.80     40261.80   215.55    301.00   12.27   False
  149.638     38318.81     38318.81   215.63    270.00   11.62   False
  149.688     36471.64     36471.64   215.71    262.00   11.45   False
  149.738     34748.72     34748.72   215.79    277.00   11.77   False
  149.788     33174.57     33174.57   215.87    258.00   11.36   False
  149.838     31770.76     31770.76   215.95    258.00   11.36   False
  149.888     30556.80     30556.80   216.03    243.00   11.02   False
  149.938     29550.98     29550.98   216.11    269.00   11.60   False
  149.988     28771.11     28771.11   216.19    257.00   11.34   False
  150.038     28235.05     28235.05   216.27    257.00   11.34   False
  150.088     27961.22     27961.22   216.36    240.00   10.95   False
  150.138     27968.82     27968.82   216.44    282.00   16.79   False
  150.188     28278.04     28278.04   216.52    245.00   15.65   False
  150.238     28909.86     28909.86   216.60    243.00   15.59   False
  150.288     29885.89     29885.89   216.68    260.00   16.12   False
  150.338     31227.73     31227.73   216.76    255.00   15.97   False
  150.388     32956.28     32956.28   216.84    275.00   16.58   False
  150.438     35090.78     35090.78   216.92    255.00   15.97   False
  150.488     37647.57     37647.57   217.00    270.00   16.43   False
  150.538     40638.83     40638.83   217.08    286.00   16.91   False
  150.588     44071.12     44071.12   217.16    271.00   16.46   False
  150.638     47943.91     47943.91   217.24    258.00   16.06   False
  150.688     52248.12     52248.12   217.32    309.00   17.58   False
  150.738     56964.73     56964.73   217.40    299.00   17.29   False
  150.788     62063.44     62063.44   217.48    297.00   17.23   False
  150.838     67501.55     67501.55   217.56    304.00   17.44   False
  150.888     73222.85     73222.85   217.64    319.00   17.86   False
  150.938     79156.72     79156.72   217.72    314.00   17.72   False
  150.988     85217.24     85217.24   217.80    290.00   17.03   False
  151.038     91302.43     91302.43   217.88    338.00   18.38   False
  151.088     97293.73     97293.73   217.96    316.00   17.78   False
  151.138    103056.15    103056.15   218.04    341.00   18.47   False
  151.188    108439.67    108439.67   218.12    384.00   19.60   False
  151.238    113283.05    113283.05   218.20    360.00   18.97   False
  151.288    117420.92    117420.92   218.28    367.00   19.16   False
  151.338    120694.78    120694.78   218.36    383.00   19.57   False
  151.388    122967.25    122967.25   218.44    366.00   19.13   False
  151.438    124137.43    124137.43   218.52    369.00   19.21   False
  151.488    124154.05    124154.05   218.60    363.00   19.05   False
  151.538    123022.87    123022.87   218.68    332.00   18.22   False
  151.588    120806.06    120806.06   218.76    325.00   18.03   False
  151.638    117613.71    117613.71   218.84    334.00   18.28   False
  151.688    113589.81    113589.81   218.92    373.00   19.31   False
  151.738    108896.21    108896.21   219.01    336.00   18.33   False
  151.788    103697.98    103697.98   219.09    313.00   17.69   False
  151.838     98152.21     98152.21   219.17    339.00   18.41   False
  151.888     92400.86     92400.86   219.25    325.00   18.03   False
  151.938     86567.25     86567.25   219.33    307.00   17.52   False
  151.988     80755.29     80755.29   219.41    277.00   16.64   False
  152.038     75050.22     75050.22   219.49    286.00   16.91   False
  152.088     69520.26     69520.26   219.57    305.00   17.46   False
  152.138     64218.54     64218.54   219.65    277.00   16.64   False
  152.188     59184.97     59184.97   219.73    262.00   16.19   False
  152.238     54447.97     54447.97   219.81    262.00   16.19   False
  152.288     50026.06     50026.06   219.89    241.00   15.52   False
  152.338     45929.22     45929.22   219.97    251.00   15.84   False
  152.388     42160.21     42160.21   220.05    260.00   16.12   False
  152.438     38715.69     38715.69   220.13    245.00   15.65   False
  152.488     35587.35     35587.35   220.21    249.00   15.78   False
  152.538     32762.87     32762.87   220.29    260.00   16.12   False
  152.588     30226.88     30226.88   220.37    256.00   16.00   False
  152.638     27961.79     27961.79   220.45    242.00   15.56   False
  152.688     25948.57     25948.57   220.53    258.00   16.06   False
  152.738     24167.40     24167.40   220.61    248.00   15.75   False
  152.788     22598.28     22598.28   220.69    235.00   15.33   False
  152.838     21221.45     21221.45   220.77    245.00   15.65   False
  152.888     20017.82     20017.82   220.85    248.00   15.75   False
  152.938     18969.26     18969.26   220.93    281.00   16.76   False
  152.988     18058.79     18058.79   221.01    228.00   15.10   False
  153.038     17270.76     17270.76   221.09    230.00   15.17   False
  153.088     16590.89     16590.89   221.17    212.00   14.56   False
  153.138     16006.34     16006.34   221.25    237.00   15.39   False
  153.188     15505.64     15505.64   221.33    244.00   15.62   False
  153.238     15078.72     15078.72   221.41    231.00   15.20   False
  153.288     14716.78     14716.78   221.49    266.00   16.31   False
  153.338     14412.25     14412.25   221.57    231.00   15.20   False
  153.388     14158.67     14158.67   221.66    234.00   15.30   False
  153.438     13950.66     13950.66   221.74    247.00   15.72   False
  153.488     13783.76     13783.76   221.82    264.00   16.25   False
  153.538     13654.43     13654.43   221.90    247.00   15.72   False
  153.588     13559.91     13559.91   221.98    261.00   16.16   False
  153.638     13498.25     13498.25   222.06    223.00   14.93   False
  153.688     13468.20     13468.20   222.14    242.00   15.56   False
  153.738     13469.23     13469.23   222.22    271.00   16.46   False
  153.788     13501.49     13501.49   222.30    247.00   15.72   False
  153.838     13565.83     13565.83   222.38    249.00   15.78   False
  153.888     13663.79     13663.79   222.46    251.00   15.84   False
  153.938     13797.65     13797.65   222.54    232.00   15.23   False
  153.988     13970.41     13970.41   222.62    225.00   15.00   False
  154.038     14185.85     14185.85   222.70    255.00   15.97   False
  154.088     14448.51     14448.51   222.78    209.00   14.46   False
  154.138     14763.74     14763.74   222.86    266.00   16.31   False
  154.188     15137.66     15137.66   222.94    255.00   15.97   False
  154.238     15577.16     15577.16   223.02    273.00   16.52   False
  154.288     16089.83     16089.83   223.10    250.00   15.81   False
  154.338     16683.92     16683.92   223.18    234.00   15.30   False
  154.388     17368.19     17368.19   223.26    257.00   16.03   False
  154.438     18151.81     18151.81   223.34    250.00   15.81   False
  154.488     19044.18     19044.18   223.42    270.00   16.43   False
  154.538     20054.72     20054.72   223.50    262.00   16.19   False
  154.588     21192.67     21192.67   223.58    281.00   16.76   False
  154.638     22466.81     22466.81   223.66    257.00   16.03   False
  154.688     23885.23     23885.23   223.74    260.00   16.12   False
  154.738     25455.05     25455.05   223.82    257.00   16.03   False
  154.788     27182.15     27182.15   223.90    242.00   15.56   False
  154.838     29070.91     29070.91   223.98    255.00   15.97   False
  154.888     31124.01     31124.01   224.06    250.00   15.81   False
  154.938     33342.17     33342.17   224.14    274.00   16.55   False
  154.988     35724.00     35724.00   224.22    288.00   16.97   False
  155.038     38265.81     38265.81   224.31    275.00   16.58   False
  155.088     40961.49     40961.49   224.39    277.00   16.64   False
  155.138     43802.40     43802.40   224.47    278.00   16.67   False
  155.188     46777.19     46777.19   224.55    264.00   16.25   False
  155.238     49871.76     49871.76   224.63    298.00   17.26   False
  155.288     53069.04     53069.04   224.71    312.00   17.66   False
  155.338     56348.93     56348.93   224.79    282.00   16.79   False
  155.388     59688.18     59688.18   224.87    314.00   17.72   False
  155.438     63060.37     63060.37   224.95    341.00   18.47   False
  155.488     66436.04     66436.04   225.03    314.00   17.72   False
  155.538     69783.12     69783.12   225.11    295.00   17.18   False
  155.588     73067.70     73067.70   225.19    326.00   18.06   False

loop_pbso4
_pd_peak_index_h
_pd_peak_index_k
_pd_peak_index_l
_pd_peak_2theta
_pd_peak_intensity_plus
_pd_peak_intensity_minus
  1   0   0    12.95         0.00         0.00
  0   0   1    15.79         0.00         0.00
  0   1   0    20.41         0.00         0.00
  1   0   1    20.48     23068.11     23068.11
  1   1   0    24.24         0.00         0.00
  0   1   1    25.91    779939.32    779939.32
  2   0   0    26.07    298175.94    298175.94
  1   1   1    29.07    574549.46    574549.46
  2   0   1    30.62    216445.20    216445.20
  0   0   2    31.90    313555.81    313555.81
  2   1   0    33.33    979909.96    979909.96
  1   0   2    34.56    778511.92    778511.92
  2   1   1    37.08   1197383.98   1197383.98
  0   1   2    38.17         0.00         0.00
  3   0   0    39.55         0.00         0.00
  1   1   2    40.47    499417.60    499417.60
  0   2   0    41.50    592263.13    592263.13
  2   0   2    41.65     16144.97     16144.97
  3   0   1    42.83    118094.17    118094.17
  1   2   0    43.65         0.00         0.00
  0   2   1    44.67         0.00         0.00
  3   1   0    44.90         0.00         0.00
  1   2   1    46.70       869.20       869.20
  2   1   2    46.80    237998.05    237998.05
  3   1   1    47.89     17443.33     17443.33
  0   0   3    48.68         0.00         0.00
  2   2   0    49.67    298708.34    298708.34
  1   0   3    50.60     85563.90     85563.90
  3   0   2    51.68    103983.39    103983.39
  2   2   1    52.45    462506.10    462506.10
  0   2   2    53.28     62335.21     62335.21
  0   1   3    53.31      3049.65      3049.65
  4   0   0    53.62      4960.17      4960.17
  1   2   2    55.07    733224.83    733224.83
  1   1   3    55.11    808588.74    808588.74
  2   0   3    56.05      9676.40      9676.40
  3   1   2    56.13    575092.12    575092.12
  4   0   1    56.27    523093.70    523093.70
  4   1   0    57.97    369132.34    369132.34
  3   2   0    58.66         0.00         0.00
  2   2   2    60.25     64139.38     64139.38
  2   1   3    60.28      1631.94      1631.94
  4   1   1    60.49      1348.23      1348.23
  3   2   1    61.16    117671.99    117671.99
  4   0   2    63.76       917.19       917.19
  0   3   0    64.20         0.00         0.00
  3   0   3    64.45    326720.78    326720.78
  1   3   0    65.81         0.00         0.00
  0   2   3    65.85         0.00         0.00
  0   3   1    66.58    156096.86    156096.86
  0   0   4    66.68     40402.37     40402.37
  1   2   3    67.43      9381.18      9381.18
  4   1   2    67.71     43411.00     43411.00
  1   3   1    68.16     82351.24     82351.24
  1   0   4    68.25    151691.65    151691.65
  3   2   2    68.34     22933.10     22933.10
  3   1   3    68.37    140527.36    140527.36
  5   0   0    68.64         0.00         0.00
  4   2   0    70.00        27.17        27.17
  2   3   0    70.52    140245.56    140245.56
  0   1   4    70.54         0.00         0.00
  5   0   1    70.95     47284.33     47284.33
  1   1   4    72.08     74004.68     74004.68
  2   2   3    72.09        78.82        78.82
  4   2   1    72.28    341024.65    341024.65
  5   1   0    72.45         0.00         0.00
  2   3   1    72.80    216347.10    216347.10
  2   0   4    72.89     22373.01     22373.01
  0   3   2    73.49         0.00         0.00
  5   1   1    74.71     21771.30     21771.30
  1   3   2    75.00    141061.77    141061.77
  4   0   3    75.33      9492.45      9492.45
  2   1   4    76.62     38841.84     38841.84
  5   0   2    77.69     19877.77     19877.77
  3   3   0    78.09         0.00         0.00
  4   2   2    78.99       836.17       836.17
  4   1   3    79.02       381.12       381.12
  2   3   2    79.49     51665.07     51665.07
  3   2   3    79.61    416978.07    416978.07
  3   3   1    80.30     14347.47     14347.47
  3   0   4    80.38     11365.76     11365.76
  5   1   2    81.35    202515.31    202515.31
  0   2   4    81.67     59194.10     59194.10
  1   2   4    83.14    284547.58    284547.58
  5   2   0    83.50         0.00         0.00
  3   1   4    84.01    161888.83    161888.83
  0   3   3    84.53      1352.19      1352.19
  6   0   0    85.15     15403.78     15403.78
  5   2   1    85.67     90624.58     90624.58
  1   3   3    85.99    261476.50    261476.50
  0   0   5    86.78         0.00         0.00
  3   3   2    86.83    209571.90    209571.90
  6   0   1    87.32     35070.15     35070.15
  2   2   4    87.53     27752.53     27752.53
  1   0   5    88.24      7646.48      7646.48
  4   3   0    88.38    162112.46    162112.46
  5   0   3    88.60    143295.95    143295.95
  6   1   0    88.75    124742.87    124742.87
  4   2   3    89.87      1839.37      1839.37
  0   4   0    90.24    149640.33    149640.33
  2   3   3    90.36       134.43       134.43
  0   1   5    90.38    110722.21    110722.21
  4   3   1    90.54         9.96         9.96
  4   0   4    90.63       156.52       156.52
  6   1   1    90.92    183306.91    183306.91
  1   4   0    91.69         0.00         0.00
  1   1   5    91.84     37069.30     37069.30
  5   2   2    92.17     11565.83     11565.83
  5   1   3    92.20     82738.96     82738.96
  0   4   1    92.40         0.00         0.00
  2   0   5    92.61     46458.76     46458.76
  6   0   2    93.81      3520.09      3520.09
  1   4   1    93.86      2615.93      2615.93
  4   1   4    94.23     68955.08     68955.08
  3   2   4    94.82       145.02       145.02
  2   4   0    96.08     42568.66     42568.66
  2   1   5    96.22    142593.21    142593.21
  4   3   2    97.05     34178.26     34178.26
  6   1   2    97.43     36630.83     36630.83
  3   3   3    97.67     95221.54     95221.54
  2   4   1    98.26     51469.79     51469.79
  0   4   2    98.92     47815.02     47815.02
  6   2   0    99.59     60146.89     60146.89
  0   3   4    99.72         0.00         0.00
  3   0   5    99.95     30724.80     30724.80
  1   4   2   100.40    172019.32    172019.32
  1   3   4   101.20     61557.35     61557.35
  0   2   5   101.24         0.00         0.00
  5   3   0   101.57         0.00         0.00
  6   2   1   101.79     59721.45     59721.45
  1   2   5   102.73        25.16        25.16
  5   2   3   103.10    313635.91    313635.91
  3   4   0   103.47         0.00         0.00
  3   1   5   103.62     29489.60     29489.60
  5   3   1   103.79     15023.95     15023.95
  5   0   4   103.88      6400.24      6400.24
  7   0   0   104.25         0.00         0.00
  6   0   3   104.79         3.95         3.95
  2   4   2   104.88      9529.91      9529.91
  4   2   4   105.19       434.23       434.23
  2   3   4   105.70     25359.01     25359.01
  3   4   1   105.71     43686.50     43686.50
  7   0   1   106.49      1112.27      1112.27
  2   2   5   107.25     85659.78     85659.78
  5   1   4   107.61    119101.38    119101.38
  7   1   0   107.99         0.00         0.00
  4   3   3   108.15       385.82       385.82
  6   2   2   108.52     26438.85     26438.85
  6   1   3   108.55        61.31        61.31
  0   4   3   110.12         0.00         0.00
  7   1   1   110.28     29130.39     29130.39
  4   0   5   110.53    123823.85    123823.85
  5   3   2   110.59    106033.48    106033.48
  0   0   6   111.05     75698.41     75698.41
  1   4   3   111.67     20174.01     20174.01
  3   4   2   112.58     23250.44     23250.44
  1   0   6   112.62       181.80       181.80
  7   0   2   113.40     96504.50     96504.50
  3   3   4   113.44    100920.75    100920.75
  4   4   0   114.27       724.90       724.90
  4   1   5   114.43         2.45         2.45
  0   1   6   114.95         0.00         0.00
  3   2   5   115.07     54885.19     54885.19
  2   4   3   116.46      2136.86      2136.86
  1   1   6   116.57      1062.25      1062.25
  4   4   1   116.67    242321.86    242321.86
  7   1   2   117.38     49858.46     49858.46
  2   0   6   117.44     36370.16     36370.16
  6   3   0   118.71     80715.14     80715.14
  5   2   4   119.40      1776.32      1776.32
  7   2   0   119.81         0.00         0.00
  6   2   3   120.42        31.99        31.99
  0   3   5   120.58     76258.41     76258.41
  6   3   1   121.20    103640.82    103640.82
  6   0   4   121.31     10157.39     10157.39
  2   1   6   121.58    157126.26    157126.26
  1   3   5   122.28     21115.54     21115.54
  7   2   1   122.34       126.46       126.46
  5   3   3   122.71     70685.30     70685.30
  4   4   2   124.20       199.70       199.70
  0   5   0   124.68         0.00         0.00
  3   4   3   124.95    213337.99    213337.99
  4   3   4   125.16     48068.44     48068.44
  5   0   5   125.42     13645.43     13645.43
  6   1   4   125.62     27067.04     27067.04
  7   0   3   125.87     10202.26     10202.26
  3   0   6   126.02         3.94         3.94
  1   5   0   126.47         0.00         0.00
  4   2   5   127.00    208723.20    208723.20
  0   5   1   127.35     33780.63     33780.63
  0   4   4   127.46     29314.04     29314.04
  0   2   6   127.60    113868.44    113868.44
  2   3   5   127.62    104930.47    104930.47
  8   0   0   128.87     89036.64     89036.64
  6   3   2   129.15     29506.57     29506.57
  1   5   1   129.21     37108.64     37108.64
  1   4   4   129.32    132529.86    132529.86
  1   2   6   129.47      3419.34      3419.34
  5   4   0   129.78         0.00         0.00
  5   1   5   129.97     22474.07     22474.07
  7   2   2   130.40    161376.40    161376.40
  7   1   3   130.44    164758.01    164758.01
  3   1   6   130.60        20.12        20.12
  8   0   1   131.71       768.87       768.87
  2   5   0   132.12     86801.44     86801.44
  5   4   1   132.66     44484.18     44484.18
  8   1   0   133.66        20.97        20.97
  2   5   1   135.11    126654.15    126654.15
  2   4   4   135.23     21341.49     21341.49
  2   2   6   135.39     89267.66     89267.66
  0   5   2   136.05         0.00         0.00
  8   1   1   136.73     96329.51     96329.51
  3   3   5   137.52     39965.15     39965.15
  1   5   2   138.19     45987.14     45987.14
  4   4   3   138.66      5009.36      5009.36
  4   0   6   140.00        16.99        16.99
  6   2   4   140.41     18455.32     18455.32
  8   0   2   141.13     44042.55     44042.55
  5   4   2   142.27     15519.24     15519.24
  3   5   0   142.92         0.00         0.00
  5   3   4   143.58     98741.96     98741.96
  7   3   0   144.19         0.00         0.00
  6   3   3   145.10        40.06        40.06
  2   5   2   145.25     55606.01     55606.01
  4   1   6   145.98    157197.98    157197.98
  5   2   5   146.17     71535.21     71535.21
  3   5   1   146.68      7304.80      7304.80
  7   2   3   146.82      4298.42      4298.42
  3   4   4   146.83      7860.46      7860.46
  3   2   6   147.04      8785.27      8785.27
  8   1   2   147.28       116.17       116.17
  7   3   1   148.07     36595.06     36595.06
  0   0   7   148.21         0.00         0.00
  7   0   4   148.23     88826.61     88826.61
  6   0   5   149.25     44766.35     44766.35
  1   0   7   151.09      5321.93      5321.93
  8   2   0   151.48    190383.00    190383.00
  0   5   3   155.33       107.61       107.61
  0   1   7   155.88     63872.04     63872.04
  7   1   4   155.92     59916.85     59916.85
  4   3   5   156.29         5.55         5.55
  8   2   1   156.40      1463.40      1463.40
  6   4   0   156.88     36488.08     36488.08
  6   1   5   157.24    171502.37    171502.37
  0   3   6   157.51         0.00         0.00
  1   5   3   159.09    300263.39    300263.39

loop_pbso4
_refln_index_h
_refln_index_k
_refln_index_l
_refln_a_calc
_refln_b_calc
  1   0   0      0.0000    0.0000
  0   0   1      0.0000    0.0000
  0   1   0      0.0000    0.0000
  1   0   1     22.5033    0.7657
  1   1   0     -0.0000    0.0000
  0   1   1   -164.2914   -3.4332
  2   0   0   -144.5051   -2.8006
  1   1   1   -111.2456   -1.8475
  2   0   1   -101.4200   -2.4234
  0   0   2   -179.3915   -1.9855
  2   1   0   -233.5993   -2.8380
  1   0   2   -215.2946   -3.1906
  2   1   1    201.4161    2.4267
  0   1   2     -0.0000    0.0000
  3   0   0      0.0000    0.0000
  1   1   2   -140.7411   -1.3347
  0   2   0   -313.4792   -3.9592
  2   0   2     36.6911    1.3553
  3   0   1   -101.7737   -1.8293
  1   2   0      0.0000    0.0000
  0   2   1      0.0000    0.0000
  3   1   0      0.0000    0.0000
  1   2   1      6.6155   -0.7414
  2   1   2    110.3482    1.3815
  3   1   1     30.4547    0.7496
  0   0   3      0.0000    0.0000
  2   2   0    183.8290    2.7198
  1   0   3    -99.9195   -1.4674
  3   0   2    112.0944    1.2559
  2   2   1    169.2003    2.3548
  0   2   2     88.9623    1.9242
  0   1   3     19.6924   -0.0441
  4   0   0    -35.6843   -0.0281
  1   2   2    221.6046    3.0982
  1   1   3    232.8273    3.5444
  2   0   3    -36.5102   -0.0338
  3   1   2    199.2238    3.0856
  4   0   1    269.2366    3.3471
  4   1   0    231.4891    3.8040
  3   2   0     -0.0000   -0.0000
  2   2   2    -70.2666   -1.3167
  2   1   3    -11.2148    0.0202
  4   1   1    -10.2198    0.0198
  3   2   1     96.2543    1.7756
  4   0   2     12.3929    0.0137
  0   3   0      0.0000    0.0000
  3   0   3    235.6759    3.5139
  1   3   0      0.0000    0.0000
  0   2   3     -0.0000    0.0000
  0   3   1    166.6727    3.2337
  0   0   4   -120.0415   -1.9303
  1   2   3     29.1173    1.4200
  4   1   2    -62.8576   -1.8398
  1   3   1     86.9890    1.7396
  1   0   4    167.1240    2.9912
  3   2   2    -45.9803   -1.2154
  3   1   3   -113.8857   -1.4453
  5   0   0      0.0000    0.0000
  4   2   0     -2.2748    0.0254
  2   3   0    164.2320    2.6731
  0   1   4      0.0000    0.0000
  5   0   1     95.7308    1.7348
  1   1   4     85.5544    1.2557
  2   2   3      2.7927    0.0313
  4   2   1   -183.9810   -3.2456
  5   1   0     -0.0000    0.0000
  2   3   1   -147.2056   -2.2861
  2   0   4     66.9924    1.3388
  0   3   2     -0.0000    0.0000
  5   1   1     47.4484    0.7378
  1   3   2    121.0733    1.2592
  4   0   3    -44.5332    0.0254
  2   1   4     64.3267    1.3418
  5   0   2     65.6043    1.2334
  3   3   0     -0.0000    0.0000
  4   2   2      9.6047   -0.0119
  4   1   3     -6.4857    0.0001
  2   3   2    -75.7505   -1.3011
  3   2   3   -215.3889   -3.4108
  3   3   1    -40.1372   -0.7073
  3   0   4    -50.5447   -1.1673
  5   1   2   -151.8295   -2.9205
  0   2   4    116.3305    1.8740
  1   2   4   -181.9881   -2.9054
  5   2   0     -0.0000    0.0000
  3   1   4   -137.9631   -2.8860
  0   3   3    -17.8876    0.0414
  6   0   0     85.6413    2.5697
  5   2   1   -104.1902   -1.6850
  1   3   3   -177.2670   -3.3371
  0   0   5      0.0000    0.0000
  3   3   2   -159.3982   -2.9058
  6   0   1    -92.4330   -2.1709
  2   2   4    -58.2028   -1.2990
  1   0   5     43.3613    0.6543
  4   3   0   -199.7780   -3.5826
  5   0   3   -188.0221   -3.3310
  6   1   0   -175.5648   -2.5435
  4   2   3     15.1524   -0.0262
  0   4   0    273.7522    3.6253
  2   3   3      4.1051   -0.0191
  0   1   5    166.5951    3.1267
  4   3   1     -1.1178   -0.0192
  4   0   4      6.2715    0.0126
  6   1   1   -151.9278   -2.2348
  1   4   0     -0.0000   -0.0000
  1   1   5    -68.5643   -1.5968
  5   2   2    -38.3397   -1.1949
  5   1   3   -102.5965   -1.4205
  0   4   1     -0.0000    0.0000
  2   0   5    108.8851    2.2070
  6   0   2    -30.0836   -1.2434
  1   4   1     18.3439    0.6780
  4   1   4    -94.3473   -1.8186
  3   2   4     -4.1868    1.1280
  2   4   0   -105.4475   -2.4826
  2   1   5   -136.5447   -2.1972
  4   3   2     66.9957    1.7328
  6   1   2     69.4419    1.2368
  3   3   3    112.0427    1.3642
  2   4   1    -82.4767   -2.1481
  0   4   2   -112.6298   -1.7634
  6   2   0   -126.5041   -2.4973
  0   3   4      0.0000    0.0000
  3   0   5    -90.4897   -1.5925
  1   4   2   -151.5419   -2.8319
  1   3   4    -90.8029   -1.1857
  0   2   5      0.0000    0.0000
  5   3   0      0.0000    0.0000
  6   2   1     89.5150    2.1068
  1   2   5      1.7290   -0.6308
  5   2   3    205.5925    3.2361
  3   4   0      0.0000    0.0000
  3   1   5     63.0916    0.6651
  5   3   1    -45.0398   -0.6959
  5   0   4    -41.5674   -1.1477
  7   0   0      0.0000    0.0000
  6   0   3      1.0341   -0.0284
  2   4   2     35.9012    1.2011
  4   2   4     -7.6700   -0.0124
  2   3   4    -58.6283   -1.2642
  3   4   1    -76.9524   -1.6235
  7   0   1    -17.3672   -0.6390
  2   2   5   -107.8704   -2.1424
  5   1   4    127.2126    2.7324
  7   1   0      0.0000    0.0000
  4   3   3      7.2435    0.0001
  6   2   2     59.9556    1.2093
  6   1   3      2.8877   -0.0181
  0   4   3     -0.0000    0.0000
  7   1   1    -62.9276   -1.6052
  4   0   5   -183.5034   -3.0299
  5   3   2    120.0572    2.7495
  0   0   6    202.8749    3.4677
  1   4   3    -52.3435   -1.2985
  3   4   2     56.1680    1.1114
  1   0   6     -7.0249    0.0552
  7   0   2   -161.7315   -2.7749
  3   3   4    116.9303    2.7176
  4   4   0    -14.0069   -0.0248
  4   1   5      0.5757   -0.0188
  0   1   6     -0.0000    0.0000
  3   2   5     86.0840    1.5460
  2   4   3    -16.9536   -0.0305
  1   1   6    -11.9511    0.0112
  4   4   1    180.4535    2.9722
  7   1   2     81.7531    1.1215
  2   0   6    -98.7156   -2.3820
  6   3   0    146.7035    2.3967
  5   2   4     15.3266    1.1108
  7   2   0      0.0000    0.0000
  6   2   3     -2.0567    0.0276
  0   3   5   -141.9388   -2.9444
  6   3   1    116.8100    2.1049
  6   0   4    -51.6946   -1.2303
  2   1   6   -143.6761   -2.4136
  1   3   5     52.5434    1.5028
  7   2   1      4.0199    0.6186
  5   3   3     96.0353    1.3402
  4   4   2      5.0791    0.0121
  0   5   0     -0.0000    0.0000
  3   4   3    165.5189    3.1186
  4   3   4     78.4995    1.7125
  5   0   5     59.0810    1.5089
  6   1   4     58.8004    1.2027
  7   0   3     50.9972    1.2240
  3   0   6     -1.0006   -0.0378
  1   5   0     -0.0000   -0.0000
  4   2   5    162.3459    2.9402
  0   5   1    -92.1897   -2.8633
  0   4   4    -85.8616   -1.7129
  0   2   6   -169.1140   -3.3640
  2   3   5    114.7882    2.0701
  8   0   0   -210.2237   -3.3663
  6   3   2    -60.4226   -1.1656
  1   5   1    -67.7361   -1.5432
  1   4   4    127.9429    2.6553
  1   2   6     20.5398   -0.0518
  5   4   0     -0.0000    0.0000
  5   1   5     52.5162    0.6530
  7   2   2    140.3845    2.6923
  7   1   3    141.8116    3.0809
  3   1   6     -1.5649   -0.0648
  8   0   1    -13.6061   -0.0409
  2   5   0   -144.2005   -2.3763
  5   4   1     72.7497    1.5398
  8   1   0     -2.2198   -0.0410
  2   5   1    120.8170    2.0316
  2   4   4     49.5451    1.1874
  2   2   6    101.2169    2.3123
  0   5   2     -0.0000    0.0000
  8   1   1    104.1120    2.8234
  3   3   5    -66.6723   -0.6292
  1   5   2    -71.1332   -1.1180
  4   4   3    -23.3904    0.0218
  4   0   6     -1.9044   -0.0225
  6   2   4     44.2079    1.1935
  8   0   2     95.9651    1.6385
  5   4   2     39.8366    1.0918
  3   5   0      0.0000    0.0000
  5   3   4    -99.1728   -2.5718
  7   3   0     -0.0000   -0.0000
  6   3   3      1.9657    0.0173
  2   5   2     73.1023    1.1575
  4   1   6    121.8773    3.2327
  5   2   5    -82.0498   -1.4678
  3   5   1     26.0582    0.6280
  7   2   3    -19.9258   -1.1840
  3   4   4    -26.9688   -1.0320
  3   2   6     28.4601    0.0403
  8   1   2     -3.2628    0.0190
  7   3   1     57.3253    1.5119
  0   0   7      0.0000    0.0000
  7   0   4    126.0612    2.6001
  6   0   5     88.3033    1.9772
  1   0   7     29.6674    0.6506
  8   2   0    176.4418    3.2656
  0   5   3     -3.9379   -0.0390
  0   1   7    -94.9406   -2.7273
  7   1   4    -64.9989   -1.0568
  4   3   5      0.6209    0.0178
  8   2   1    -10.0668    0.0371
  6   4   0     70.4068    2.2777
  6   1   5    107.1972    2.0218
  0   3   6     -0.0000    0.0000
  1   5   3    136.4256    2.9604


data_pbso4

_cell_length_a 8.477930
_cell_length_b 5.396820
_cell_length_c 6.958100
_cell_angle_alpha 90.000000
_cell_angle_beta 90.000000
_cell_angle_gamma 90.000000

_space_group_name_H-M_alt "P n m a"
_space_group_IT_coordinate_system_code abc

loop_
_atom_site_label
_atom_site_type_symbol
_atom_site_fract_x
_atom_site_fract_y
_atom_site_fract_z
_atom_site_occupancy
_atom_site_adp_type
_atom_site_U_iso_or_equiv
_atom_site_multiplicity
_atom_site_Wyckoff_symbol
  Pb   Pb4+   0.187240   0.250000   0.166150   1.0   Uiso   0.011039(92)   4   c
   S    S2+   0.064340   0.250000   0.682610   1.0   Uiso   -0.00099(50)   4   c
  O1    O2-   0.907900   0.250000   0.595980   1.0   Uiso    0.01900(12)   4   c
  O2    O2-   0.192600   0.250000   0.541710   1.0   Uiso    0.01289(65)   4   c
  O3    O2-   0.080430   0.028930   0.807340   1.0   Uiso    0.01031(20)   8   d

